<?xml version="1.0" encoding="UTF-8"?>

<!-- generated on 2026-04-17T11:09:41.149775-05:00 by Eclipse SUMO polyconvert 1.26.0
<polyconvertConfiguration xmlns:xsi="http://www.w3.org/2001/XMLSchema-instance" xsi:noNamespaceSchemaLocation="http://sumo.dlr.de/xsd/polyconvertConfiguration.xsd">

    <input>
        <net-file value="C:\Users\xavie\Antigravity\TIC-VANET-Vehicular-Ad-hoc-Network-\output\mapa.net.xml"/>
        <osm-files value="C:\Users\xavie\Antigravity\TIC-VANET-Vehicular-Ad-hoc-Network-\output\map.osm"/>
    </input>

    <output>
        <output-file value="C:\Users\xavie\Antigravity\TIC-VANET-Vehicular-Ad-hoc-Network-\output\mapa.poly.xml"/>
    </output>

</polyconvertConfiguration>
-->

<additional xmlns:xsi="http://www.w3.org/2001/XMLSchema-instance" xsi:noNamespaceSchemaLocation="http://sumo.dlr.de/xsd/additional_file.xsd">
    <location netOffset="-774341.10,29419.89" convBoundary="-1603.88,-1806.17,5183.25,6485.28" origBoundary="-78.549702,-0.282252,-78.488779,-0.207296" projParameter="+proj=utm +zone=17 +ellps=WGS84 +datum=WGS84 +units=m +no_defs"/>

    <poly id="1051178922" type="building" color="255,230,230" fill="1" layer="-1.00" shape="2231.371774,4592.286186 2217.569510,4578.525567 2222.891897,4569.386229 2234.053568,4577.858955 2230.211977,4583.756442 2234.779322,4588.369136 2231.371774,4592.286186"/>
    <poly id="1051430411" type="building" color="255,230,230" fill="1" layer="-1.00" shape="1743.505722,4710.825297 1734.660443,4700.327586 1732.032141,4701.788404 1728.913940,4704.245014 1737.213488,4714.908769 1743.505722,4710.825297"/>
    <poly id="1051430412" type="building" color="255,230,230" fill="1" layer="-1.00" shape="1737.281593,4722.476151 1747.371730,4717.639724 1757.721550,4733.602524 1748.923608,4739.611457 1747.453039,4737.454334 1737.281593,4722.476151"/>
    <poly id="1051430413" type="building" color="255,230,230" fill="1" layer="-1.00" shape="1748.923608,4739.611457 1757.721550,4733.602524 1767.692196,4746.699959 1756.365715,4751.337451 1748.923608,4739.611457"/>
    <poly id="1051430414" type="building" color="255,230,230" fill="1" layer="-1.00" shape="1756.365715,4751.337451 1745.206418,4756.660847 1738.766740,4745.023193 1748.923608,4739.611457 1756.365715,4751.337451"/>
    <poly id="1051430417" type="building" color="255,230,230" fill="1" layer="-1.00" shape="1660.681773,4762.538711 1668.603584,4778.900198 1676.321529,4775.170521 1668.221509,4758.798000 1660.681773,4762.538711"/>
    <poly id="1051430418" type="building" color="255,230,230" fill="1" layer="-1.00" shape="1676.321529,4775.170521 1681.878888,4772.436916 1673.155096,4755.776851 1668.221509,4758.798000 1676.321529,4775.170521"/>
    <poly id="1051430419" type="amenity" color="237,199,199" fill="1" layer="-1.00" shape="1681.878888,4772.436916 1689.975521,4768.696111 1679.837237,4752.180108 1673.155096,4755.776851 1681.878888,4772.436916"/>
    <poly id="1051430419#1" type="building" color="255,230,230" fill="1" layer="-1.00" shape="1681.878888,4772.436916 1689.975521,4768.696111 1679.837237,4752.180108 1673.155096,4755.776851 1681.878888,4772.436916"/>
    <poly id="1051430420" type="building" color="255,230,230" fill="1" layer="-1.00" shape="1689.975521,4768.696111 1698.595495,4764.114396 1687.699927,4748.162755 1679.837237,4752.180108 1689.975521,4768.696111"/>
    <poly id="1051430421" type="building" color="255,230,230" fill="1" layer="-1.00" shape="1698.595495,4764.114396 1708.240049,4758.890828 1697.344479,4742.939187 1687.699927,4748.162755 1698.595495,4764.114396"/>
    <poly id="1051430422" type="building" color="255,230,230" fill="1" layer="-1.00" shape="1708.240049,4758.890828 1725.680311,4748.720588 1717.591495,4732.779536 1697.344479,4742.939187 1708.240049,4758.890828"/>
    <poly id="1051430423" type="building" color="255,230,230" fill="1" layer="-1.00" shape="1725.680311,4748.720588 1747.453039,4737.454334 1737.281593,4722.476151 1717.591495,4732.779536 1725.680311,4748.720588"/>
    <poly id="1053364291" type="residential" color="235,235,227" fill="1" layer="-3.00" shape="2279.846735,5070.707152 2312.911856,5116.626163 2325.489523,5134.093313 2096.758305,5322.940479 2025.875665,5386.024964 1933.622357,5331.995149 1863.575027,5259.209183 1831.904455,5226.300657 1772.764006,5170.705571"/>
    <poly id="1053364292" type="building" color="255,230,230" fill="1" layer="-1.00" shape="1788.231955,5154.860155 1767.857192,5133.754484 1754.426981,5146.546052 1756.298473,5148.481844 1754.026696,5150.650656 1772.518825,5169.820536 1788.231955,5154.860155"/>
    <poly id="1062675395" type="water" color="181,209,209" fill="0" layer="-4.00" shape="2029.663991,4792.314675 2032.170460,4794.880976"/>
    <poly id="1062675396" type="water" color="181,209,209" fill="0" layer="-4.00" shape="2058.295557,4768.114053 2060.601494,4770.381674"/>
    <poly id="1062675408" type="water" color="181,209,209" fill="0" layer="-4.00" shape="2086.815794,4744.201090 2088.943492,4746.280663"/>
    <poly id="1062675409" type="natural" color="140,196,107" fill="0" layer="-4.00" shape="2054.177804,4787.597509 2064.312173,4780.725389"/>
    <poly id="1070137097" type="natural" color="140,196,107" fill="0" layer="-4.00" shape="1982.556025,4825.059386 1909.390029,4885.953878"/>
    <poly id="1070137100" type="amenity" color="237,199,199" fill="0" layer="-1.00" shape="1992.122435,4818.652034 1908.132178,4890.335217"/>
    <poly id="1077782502" type="historic" color="128,255,128" fill="1" layer="-1.00" shape="2454.095417,5581.302637 2496.057741,5547.164892 2530.113926,5524.169366 2609.874834,5467.179243 2686.939973,5407.810843 2831.213693,5292.361341 2907.677607,5234.187709 2980.265058,5173.337282 3157.992751,5029.680708 3148.427766,4978.646165 3108.973050,4889.624444 3091.035746,4793.485274 3053.968558,4662.919637 3036.055150,4708.028731 3024.111505,4751.953004 2954.812896,4830.305615 2952.436967,4875.412039 2950.055272,4952.569517 2849.658576,4827.944701 2791.093879,4755.554903 2721.769067,4678.409675 2587.905734,4506.328496 2516.182050,4600.402617 2515.937059,4600.668183 2515.133770,4592.702600 2510.761319,4555.319780 2507.434036,4507.437523 2506.785538,4492.822751 2498.531465,4422.825407 2496.056873,4411.375110 2491.958715,4414.971449 2488.684707,4418.213615 2474.575334,4432.443688 2459.118682,4449.107959 2446.379407,4464.090110 2434.130550,4481.107857 2428.251179,4489.749449 2423.151370,4497.837733 2420.000361,4503.901065 2417.773800,4509.953175 2408.280821,4555.160222 2399.366346,4596.506006 2398.219617,4599.338454 2396.036854,4600.976222 2383.930818,4606.465771 2330.249689,4629.166102 2289.933127,4645.978377 2277.235530,4644.066548 2193.207347,4689.418922 2180.444422,4696.313626 2099.201922,4748.546942 2057.385152,4785.351085 1903.246323,4912.385499 2003.647026,4999.017696 2057.432292,5066.661799 2166.205962,5270.809006 2247.474778,5376.429672 2275.559438,5344.385206 2310.223803,5430.431270 2386.119825,5509.943165 2454.095417,5581.302637"/>
    <poly id="112033753" type="school" color="237,199,199" fill="1" layer="-2.00" shape="2871.693881,4590.738971 2883.279164,4601.070332 2892.499810,4591.554128 2902.982487,4602.206520 2884.686055,4621.648254 2863.638922,4643.358474 2849.339800,4655.552909 2836.499344,4665.324182 2814.615544,4679.279000 2801.853016,4688.817922 2806.565523,4695.499489 2779.035528,4713.991300 2780.472870,4717.177350 2766.362613,4726.528414 2754.374818,4706.981208 2763.362315,4701.879403 2753.513951,4687.863596 2784.741067,4665.332972 2794.589364,4678.928366 2819.769468,4661.786696 2809.776433,4648.545358 2816.580820,4643.067758 2828.066317,4656.131827 2850.183142,4637.043488 2838.508351,4624.311357 2845.412876,4618.225244 2858.647058,4631.366460 2878.379720,4608.572238 2866.226154,4596.802715 2871.693881,4590.738971"/>
    <poly id="112033753#1" type="building" color="255,230,230" fill="1" layer="-1.00" shape="2871.693881,4590.738971 2883.279164,4601.070332 2892.499810,4591.554128 2902.982487,4602.206520 2884.686055,4621.648254 2863.638922,4643.358474 2849.339800,4655.552909 2836.499344,4665.324182 2814.615544,4679.279000 2801.853016,4688.817922 2806.565523,4695.499489 2779.035528,4713.991300 2780.472870,4717.177350 2766.362613,4726.528414 2754.374818,4706.981208 2763.362315,4701.879403 2753.513951,4687.863596 2784.741067,4665.332972 2794.589364,4678.928366 2819.769468,4661.786696 2809.776433,4648.545358 2816.580820,4643.067758 2828.066317,4656.131827 2850.183142,4637.043488 2838.508351,4624.311357 2845.412876,4618.225244 2858.647058,4631.366460 2878.379720,4608.572238 2866.226154,4596.802715 2871.693881,4590.738971"/>
    <poly id="1199955465" type="building" color="255,230,230" fill="1" layer="-1.00" shape="2997.948708,5219.159505 3003.404908,5210.562231 3017.985672,5217.175803 3012.318117,5227.388390 2997.948708,5219.159505"/>
    <poly id="1199955466" type="building" color="255,230,230" fill="1" layer="-1.00" shape="3003.404908,5210.562231 3014.506461,5192.217041 3016.031952,5189.705364 3023.673289,5193.653776 3032.328275,5198.133070 3017.985672,5217.175803 3003.404908,5210.562231"/>
    <poly id="1199955467" type="building" color="255,230,230" fill="1" layer="-1.00" shape="3002.999600,5184.463415 3014.506461,5192.217041 3016.031952,5189.705364 3023.673289,5193.653776 3029.919258,5178.871850 3016.095737,5171.417326 3002.999600,5184.463415"/>
    <poly id="1215379617" type="building" color="255,230,230" fill="1" layer="-1.00" shape="2053.782720,4888.806150 2049.662034,4890.908900 2049.316829,4891.329369 2048.314620,4892.557582 2048.804847,4893.497894 2053.272584,4901.971758 2053.885425,4903.487350 2059.821440,4900.454965 2053.782720,4888.806150"/>
    <poly id="1323890417" type="tourism" color="207,245,201" fill="1" layer="-2.00" shape="2816.618336,5063.946273 2827.078821,5075.328891 2863.406646,5049.334600 2853.090735,5036.668589 2816.618336,5063.946273"/>
    <poly id="1417420624" type="parking" color="184,184,179" fill="1" layer="-1.00" shape="2276.646635,4586.824194 2296.966455,4611.448053 2330.433640,4597.413867 2343.998711,4591.724929 2350.380308,4589.046480 2366.405720,4576.597331 2330.625464,4546.521801 2322.315383,4539.697046 2276.646635,4586.824194"/>
    <poly id="1457029918" type="building" color="255,230,230" fill="1" layer="-1.00" shape="1725.249314,5168.766279 1718.565474,5162.195704 1729.868585,5150.875931 1736.541288,5157.446508 1725.249314,5168.766279"/>
    <poly id="1457029919" type="leisure" color="207,245,201" fill="1" layer="-2.00" shape="1680.862545,5155.685589 1670.936859,5144.811877 1687.173513,5130.183321 1697.099201,5141.057033 1680.862545,5155.685589"/>
    <poly id="1457029920" type="building" color="255,230,230" fill="1" layer="-1.00" shape="1750.023516,5122.528051 1756.203888,5115.457485 1753.508125,5113.134610 1759.866669,5105.853809 1761.103154,5106.915694 1764.933873,5102.544998 1768.888401,5105.951881 1763.587758,5112.015528 1765.704268,5113.851708 1760.114096,5120.258370 1758.543423,5118.897827 1757.452112,5120.137114 1758.610623,5121.143695 1754.234252,5126.156161 1750.023516,5122.528051"/>
    <poly id="1460184666" type="building" color="255,230,230" fill="1" layer="-1.00" shape="2535.904951,4981.791339 2547.597995,4970.836514 2556.654771,4980.371735 2544.972864,4991.326559 2535.904951,4981.791339"/>
    <poly id="1460184667" type="building" color="255,230,230" fill="1" layer="-1.00" shape="2683.533198,5013.972492 2675.634616,5003.540922 2679.421059,5000.708029 2687.319641,5011.139599 2683.533198,5013.972492"/>
    <poly id="1460184668" type="building" color="255,230,230" fill="1" layer="-1.00" shape="2677.808212,5013.619418 2667.168744,4997.568044 2670.053166,4995.675700 2680.692634,5011.727074 2677.808212,5013.619418"/>
    <poly id="1463027027" type="building" color="255,230,230" fill="1" layer="-1.00" shape="1735.243782,4990.444089 1754.933834,4979.731390 1746.867537,4965.106867 1727.177487,4975.819568 1735.243782,4990.444089"/>
    <poly id="1463027028" type="building" color="255,230,230" fill="1" layer="-1.00" shape="1693.132793,4999.290804 1695.739874,5004.136155 1706.732026,4998.314953 1704.124943,4993.458538 1693.132793,4999.290804"/>
    <poly id="1463027029" type="building" color="255,230,230" fill="1" layer="-1.00" shape="1689.723530,4992.929897 1692.052098,4997.388074 1702.866082,4991.799233 1700.526377,4987.352121 1689.723530,4992.929897"/>
    <poly id="1463027030" type="building" color="255,230,230" fill="1" layer="-1.00" shape="1686.704137,4986.834447 1689.110695,4991.436435 1699.612846,4986.024661 1697.206288,4981.422673 1686.704137,4986.834447"/>
    <poly id="1463027031" type="building" color="255,230,230" fill="1" layer="-1.00" shape="1669.408310,4994.946833 1684.888757,4987.432176 1687.239657,4992.222252 1671.770347,4999.736906 1669.408310,4994.946833"/>
    <poly id="1463027032" type="building" color="255,230,230" fill="1" layer="-1.00" shape="1675.568450,5000.178810 1677.807855,5004.282971 1689.557297,4997.941662 1687.317893,4993.848564 1675.568450,5000.178810"/>
    <poly id="1476008420" type="parking" color="184,184,179" fill="1" layer="-1.00" shape="2013.354159,5303.460410 2021.382904,5293.092621 2039.696154,5308.069528 2032.435855,5318.016779 2013.354159,5303.460410"/>
    <poly id="1476008421" type="leisure" color="207,245,201" fill="1" layer="-2.00" shape="2367.978004,5116.904648 2391.002974,5133.662003 2397.494945,5124.854385 2374.469973,5108.097031 2367.978004,5116.904648"/>
    <poly id="1476008421#1" type="sport" color="79,230,125" fill="1" layer="-2.00" shape="2367.978004,5116.904648 2391.002974,5133.662003 2397.494945,5124.854385 2374.469973,5108.097031 2367.978004,5116.904648"/>
    <poly id="1476008422" type="building" color="255,230,230" fill="1" layer="-1.00" shape="2343.169630,5092.148695 2365.115637,5117.447236 2374.469973,5108.097031 2351.989605,5084.380657 2343.169630,5092.148695"/>
    <poly id="1476008423" type="building" color="255,230,230" fill="1" layer="-1.00" shape="2330.975390,5103.147831 2343.169630,5092.148695 2352.501846,5083.749953 2345.305383,5075.730125 2323.154768,5092.517124 2330.975390,5103.147831"/>
    <poly id="1476061181" type="building" color="255,230,230" fill="1" layer="-1.00" shape="2318.597861,5083.633905 2341.383417,5067.322529 2344.935933,5064.356922 2335.789981,5054.268548 2329.776370,5059.602152 2311.367805,5074.529863 2318.597861,5083.633905"/>
    <poly id="1476061182" type="building" color="255,230,230" fill="1" layer="-1.00" shape="2351.173141,5130.902757 2361.664060,5124.616950 2366.655931,5137.007227 2369.841922,5140.204045 2361.968245,5145.416257 2360.074426,5143.226001 2351.173141,5130.902757"/>
    <poly id="1476061183" type="building" color="255,230,230" fill="1" layer="-1.00" shape="2366.655931,5137.007227 2371.744521,5128.221970 2394.780030,5141.383691 2389.691439,5150.168948 2366.655931,5137.007227"/>
    <poly id="1476061184" type="building" color="255,230,230" fill="1" layer="-1.00" shape="2395.381832,5143.496718 2409.318212,5160.211336 2409.685715,5159.912561 2415.554624,5155.087903 2403.055327,5140.087886 2401.618242,5138.362221 2395.381832,5143.496718"/>
    <poly id="1476061185" type="building" color="255,230,230" fill="1" layer="-1.00" shape="2406.957310,5162.302728 2409.318212,5160.211336 2409.685715,5159.912561 2415.554624,5155.087903 2428.410370,5170.287005 2419.679398,5177.501853 2406.957310,5162.302728"/>
    <poly id="1476061186" type="building" color="255,230,230" fill="1" layer="-1.00" shape="2393.476222,5204.434739 2402.240441,5196.213112 2395.422811,5189.034038 2386.647457,5197.266731 2393.476222,5204.434739"/>
    <poly id="1476061187" type="building" color="255,230,230" fill="1" layer="-1.00" shape="2400.944932,5175.104186 2411.773354,5189.042387 2417.107765,5184.959073 2406.268204,5171.020874 2404.141122,5172.647560 2400.944932,5175.104186"/>
    <poly id="1476061188" type="building" color="255,230,230" fill="1" layer="-1.00" shape="2436.524739,5205.976488 2422.465384,5186.496009 2426.697211,5182.866481 2433.525946,5189.835348 2440.790016,5202.557160 2436.524739,5205.976488"/>
    <poly id="1476061189" type="building" color="255,230,230" fill="1" layer="-1.00" shape="2425.098695,5215.116828 2407.419489,5195.559506 2413.321723,5190.192734 2431.513316,5209.982303 2425.098695,5215.116828"/>
    <poly id="1476061190" type="building" color="255,230,230" fill="1" layer="-1.00" shape="1879.569438,4993.042027 1898.785323,5010.740342 1908.888979,5020.043021 1920.036055,5008.092630 1908.573361,4997.540009 1910.310570,4995.692122 1919.208184,4986.153938 1904.715507,4972.824898 1901.340192,4969.705568 1879.569438,4993.042027"/>
    <poly id="1476061191" type="building" color="255,230,230" fill="1" layer="-1.00" shape="1877.330939,4994.392142 1879.569438,4993.042027 1901.340192,4969.705568 1905.917301,4966.230879 1896.749247,4957.038683 1894.554706,4954.837423 1888.596829,4960.314828 1865.957209,4982.987624 1877.330939,4994.392142"/>
    <poly id="1476061192" type="landuse" color="194,194,130" fill="1" layer="-3.00" shape="1858.437996,4976.339747 1865.957209,4982.987624 1888.596829,4960.314828 1886.680778,4958.356917 1882.625961,4954.706657 1858.437996,4976.339747"/>
    <poly id="1476061193" type="building" color="255,230,230" fill="1" layer="-1.00" shape="1911.170955,4945.607722 1923.313807,4960.585608 1926.788248,4957.033658 1929.148983,4954.001876 1934.126626,4947.949333 1929.203001,4944.011567 1928.523724,4944.830377 1919.623316,4937.662748 1915.970650,4941.104093 1911.170955,4945.607722"/>
    <poly id="1476061194" type="building" color="255,230,230" fill="1" layer="-1.00" shape="1896.749247,4957.038683 1911.170955,4945.607722 1905.456223,4939.789302 1902.148774,4942.876559 1892.460396,4952.569765 1894.554706,4954.837423 1896.749247,4957.038683"/>
    <poly id="1476061195" type="building" color="255,230,230" fill="1" layer="-1.00" shape="1905.456223,4939.789302 1910.801598,4934.820917 1915.970650,4941.104093 1911.170955,4945.607722 1905.456223,4939.789302"/>
    <poly id="1476061196" type="building" color="255,230,230" fill="1" layer="-1.00" shape="1896.749247,4957.038683 1905.917301,4966.230879 1908.401495,4968.830375 1912.200055,4971.971761 1923.313807,4960.585608 1911.170955,4945.607722 1896.749247,4957.038683"/>
    <poly id="1476061197" type="building" color="255,230,230" fill="1" layer="-1.00" shape="1904.715507,4972.824898 1908.401495,4968.830375 1912.200055,4971.971761 1922.649118,4982.037758 1919.208184,4986.153938 1904.715507,4972.824898"/>
    <poly id="1476061198" type="building" color="255,230,230" fill="1" layer="-1.00" shape="1912.200055,4971.971761 1922.649118,4982.037758 1924.331217,4983.663805 1927.527259,4980.399551 1938.874695,4967.729998 1928.358948,4958.538025 1926.788248,4957.033658 1923.313807,4960.585608 1912.200055,4971.971761"/>
    <poly id="1476061199" type="building" color="255,230,230" fill="1" layer="-1.00" shape="1910.310570,4995.692122 1920.036055,5008.092630 1927.978951,5017.373543 1939.571902,5007.558323 1931.517531,4997.713192 1922.705560,4986.540575 1910.310570,4995.692122"/>
    <poly id="1476061200" type="building" color="255,230,230" fill="1" layer="-1.00" shape="1931.517531,4997.713192 1937.107965,4992.866465 1946.885655,4984.390224 1947.732016,4983.659894 1943.877501,4978.936443 1943.610022,4977.929713 1933.531599,4986.350687 1928.162241,4981.118570 1927.527259,4980.399551 1924.331217,4983.663805 1921.981456,4985.710936 1922.705560,4986.540575 1931.517531,4997.713192"/>
    <poly id="1476061201" type="building" color="255,230,230" fill="1" layer="-1.00" shape="1962.614308,4995.694449 1958.893541,4991.524147 1965.931644,4985.106166 1962.411284,4980.482229 1960.117235,4982.673177 1955.082064,4977.739716 1958.935271,4974.641304 1965.306997,4979.585605 1967.567627,4977.361472 1973.850349,4982.903214 1971.545297,4985.901797 1962.614308,4995.694449"/>
    <poly id="1476061202" type="building" color="255,230,230" fill="1" layer="-1.00" shape="1943.877501,4978.936443 1950.035950,4973.978985 1955.080756,4969.917852 1958.935271,4974.641304 1955.082064,4977.739716 1947.732016,4983.659894 1943.877501,4978.936443"/>
    <poly id="1476061203" type="building" color="255,230,230" fill="1" layer="-1.00" shape="1931.517531,4997.713192 1937.107965,4992.866465 1940.170902,4992.899144 1944.571164,4997.556124 1946.275268,4997.555839 1950.607453,4994.733934 1951.041539,4992.974772 1947.131311,4988.107504 1946.885655,4984.390224 1947.732016,4983.659894 1955.082064,4977.739716 1960.117235,4982.673177 1962.411284,4980.482229 1965.931644,4985.106166 1958.893541,4991.524147 1962.614308,4995.694449 1960.431665,4998.040267 1959.585073,4997.387664 1943.459798,5012.093691 1939.571902,5007.558323 1931.517531,4997.713192"/>
    <poly id="1476061204" type="building" color="255,230,230" fill="1" layer="-1.00" shape="1908.888979,5020.043021 1913.679083,5024.799507 1918.892667,5030.983108 1930.129257,5021.477726 1927.978951,5017.373543 1920.036055,5008.092630 1908.888979,5020.043021"/>
    <poly id="1476061205" type="building" color="255,230,230" fill="1" layer="-1.00" shape="1856.285673,5026.866881 1865.085417,5031.545253 1867.379227,5027.927122 1869.338984,5024.817966 1873.091480,5018.909457 1865.048762,5012.117840 1856.285673,5026.866881"/>
    <poly id="1476061207" type="building" color="255,230,230" fill="1" layer="-1.00" shape="1896.473549,5040.213766 1904.416299,5048.642794 1908.425353,5045.035440 1902.632618,5038.973633 1905.160562,5036.771584 1903.266728,5034.459638 1896.473549,5040.213766"/>
    <poly id="1476061208" type="landuse" color="194,194,130" fill="1" layer="-3.00" shape="1902.632618,5038.973633 1905.160562,5036.771584 1903.266728,5034.459638 1907.598915,5031.648799 1913.679083,5024.799507 1918.892667,5030.983108 1918.035166,5031.702376 1915.830594,5036.128125 1911.075386,5040.266649 1913.537334,5043.054229 1900.151481,5054.706277 1896.610285,5058.700773 1894.270943,5056.444218 1889.926455,5052.274021 1892.265021,5049.872862 1896.463440,5046.387175 1895.360173,5042.714292 1891.472596,5040.081838 1887.652428,5040.934361 1886.293733,5041.731156 1869.338984,5024.817966 1873.091480,5018.909457 1883.473492,5027.669979 1896.473549,5040.213766 1904.416299,5048.642794 1908.425353,5045.035440 1902.632618,5038.973633"/>
    <poly id="1476061209" type="building" color="255,230,230" fill="1" layer="-1.00" shape="1907.598915,5031.648799 1913.679083,5024.799507 1908.888979,5020.043021 1898.785323,5010.740342 1896.268619,5013.550879 1892.192903,5018.142892 1907.598915,5031.648799"/>
    <poly id="1476061210" type="building" color="255,230,230" fill="1" layer="-1.00" shape="1956.892779,5015.875151 1961.057774,5012.323086 1957.860568,5008.617362 1953.684435,5012.169428 1956.892779,5015.875151"/>
    <poly id="1476061211" type="building" color="255,230,230" fill="1" layer="-1.00" shape="1929.148983,4954.001876 1933.526785,4957.552513 1938.504429,4951.499970 1935.986909,4949.431525 1934.126626,4947.949333 1929.148983,4954.001876"/>
    <poly id="1476061212" type="building" color="255,230,230" fill="1" layer="-1.00" shape="1920.253013,4973.364410 1922.024205,4974.924061 1928.972976,4967.156354 1927.201782,4965.585639 1920.253013,4973.364410"/>
    <poly id="1476061213" type="building" color="255,230,230" fill="1" layer="-1.00" shape="1970.199792,4998.979029 1974.522093,5003.658150 1976.626843,5001.743821 1972.304542,4997.064699 1970.199792,4998.979029"/>
    <poly id="1476061214" type="building" color="255,230,230" fill="1" layer="-1.00" shape="1945.043437,5024.395990 1939.941270,5018.444702 1937.903316,5020.170941 1942.760399,5025.823557 1937.604264,5030.194482 1930.129257,5021.477726 1927.978951,5017.373543 1939.571902,5007.558323 1943.459798,5012.093691 1942.958661,5012.514186 1949.742983,5020.423425 1945.043437,5024.395990"/>
    <poly id="1476061215" type="building" color="255,230,230" fill="1" layer="-1.00" shape="1927.034576,5031.457479 1930.888996,5035.627759 1932.737611,5033.934742 1928.894328,5029.764460 1927.034576,5031.457479"/>
    <poly id="1476061216" type="building" color="255,230,230" fill="1" layer="-1.00" shape="1904.086352,5006.988947 1908.419718,5011.247653 1910.825109,5008.835419 1906.480604,5004.576714 1904.086352,5006.988947"/>
    <poly id="1476061217" type="building" color="255,230,230" fill="1" layer="-1.00" shape="1890.228401,4992.830041 1894.561769,4997.099810 1896.967160,4994.687576 1892.622654,4990.417809 1890.228401,4992.830041"/>
    <poly id="1476061218" type="building" color="255,230,230" fill="1" layer="-1.00" shape="1901.097432,4983.313656 1905.430801,4987.583425 1907.836191,4985.171191 1903.491686,4980.912487 1901.097432,4983.313656"/>
    <poly id="1476246769" type="building" color="255,230,230" fill="1" layer="-1.00" shape="1928.918879,4910.135315 1932.416831,4913.962684 1927.316385,4918.300413 1933.454286,4923.676224 1939.913272,4917.612368 1935.223273,4912.070363 1931.435669,4907.855821 1928.918879,4910.135315"/>
    <poly id="1476246770" type="building" color="255,230,230" fill="1" layer="-1.00" shape="1935.223273,4912.070363 1942.629151,4907.013122 1949.903454,4914.358038 1941.896265,4920.245139 1939.913272,4917.612368 1935.223273,4912.070363"/>
    <poly id="1476246771" type="building" color="255,230,230" fill="1" layer="-1.00" shape="1943.925404,4932.392474 1951.489115,4938.686314 1954.796536,4935.422041 1950.942167,4931.583666 1947.277237,4928.298434 1943.925404,4932.392474"/>
    <poly id="1476246772" type="building" color="255,230,230" fill="1" layer="-1.00" shape="1954.680539,4907.862988 1961.997153,4901.843241 1962.531915,4902.683974 1970.786657,4911.821006 1957.523655,4925.420219 1949.826113,4918.086436 1957.153600,4910.484613 1956.028468,4909.289948 1954.680539,4907.862988"/>
    <poly id="1476246773" type="building" color="255,230,230" fill="1" layer="-1.00" shape="1971.777475,4909.088166 1975.531698,4913.490793 1980.487379,4909.307975 1976.733158,4904.916411 1971.777475,4909.088166"/>
    <poly id="1476246774" type="building" color="255,230,230" fill="1" layer="-1.00" shape="1970.786657,4911.821006 1973.471343,4914.464723 1975.420804,4916.389438 1969.362820,4922.674498 1972.437339,4925.351339 1969.553103,4928.272576 1972.516277,4931.159642 1964.821270,4938.960669 1957.925763,4932.246304 1954.796536,4935.422041 1950.942167,4931.583666 1957.523655,4925.420219 1970.786657,4911.821006"/>
    <poly id="1476246775" type="building" color="255,230,230" fill="1" layer="-1.00" shape="1981.580424,4918.424082 1983.774989,4920.758104 1981.492066,4922.871608 1984.377259,4925.659116 1990.569060,4920.336554 1985.567220,4914.927361 1981.580424,4918.424082"/>
    <poly id="1476246776" type="landuse" color="194,194,130" fill="1" layer="-3.00" shape="1973.471343,4914.464723 1975.531698,4913.490793 1971.777475,4909.088166 1976.733158,4904.916411 1972.789267,4898.588774 1969.892624,4893.942608 1967.697861,4890.424796 1960.280950,4896.112658 1964.803673,4900.415584 1962.531915,4902.683974 1970.786657,4911.821006 1973.471343,4914.464723"/>
    <poly id="1476246777" type="building" color="255,230,230" fill="1" layer="-1.00" shape="1983.443420,4936.092115 1987.130775,4940.262421 1991.730075,4936.267742 1988.243205,4932.119529 1983.443420,4936.092115"/>
    <poly id="1476246779" type="building" color="255,230,230" fill="1" layer="-1.00" shape="1974.389855,4945.519697 1977.674850,4941.359287 1981.840981,4944.600183 1978.544850,4948.771659 1974.389855,4945.519697"/>
    <poly id="1476246780" type="building" color="255,230,230" fill="1" layer="-1.00" shape="2015.903884,4963.048335 2018.655453,4966.023946 2021.194515,4963.700194 2018.442948,4960.735646 2015.903884,4963.048335"/>
    <poly id="1476246781" type="building" color="255,230,230" fill="1" layer="-1.00" shape="2049.546154,4930.493994 2053.922815,4927.207412 2049.288410,4921.112220 2045.023151,4924.531545 2049.546154,4930.493994"/>
    <poly id="1476246786" type="building" color="255,230,230" fill="1" layer="-1.00" shape="2155.793384,4614.337467 2159.880169,4609.380338 2165.694984,4614.125580 2161.608197,4619.071646 2155.793384,4614.337467"/>
    <poly id="1476263503" type="building" color="255,230,230" fill="1" layer="-1.00" shape="1988.715880,4894.791337 1985.295761,4890.189511 1993.637023,4883.915130 1997.290917,4887.786728 1996.310912,4888.583461 1989.718157,4893.972472 1988.715880,4894.791337"/>
    <poly id="1476263504" type="building" color="255,230,230" fill="1" layer="-1.00" shape="1967.697861,4890.424796 1969.892624,4893.942608 1972.789267,4898.588774 1978.502384,4894.748796 1985.295761,4890.189511 1978.355587,4882.800285 1974.067995,4885.865582 1972.530650,4884.018243 1966.171635,4888.466820 1967.697861,4890.424796"/>
    <poly id="1476263505" type="building" color="255,230,230" fill="1" layer="-1.00" shape="1969.892624,4893.942608 1974.893014,4890.700175 1978.502384,4894.748796 1985.295761,4890.189511 1988.715880,4894.791337 1976.733158,4904.916411 1972.789267,4898.588774 1969.892624,4893.942608"/>
    <poly id="1476263506" type="building" color="255,230,230" fill="1" layer="-1.00" shape="1999.470269,4865.847520 2009.306992,4877.296550 1999.150679,4886.160087 1997.290917,4887.786728 1993.637023,4883.915130 1990.551254,4880.574483 1987.800603,4883.075286 1983.990736,4878.949255 1986.373891,4876.780417 1991.051109,4872.520200 1998.058149,4880.130684 2001.432430,4877.065539 1994.882129,4869.952834 1999.470269,4865.847520"/>
    <poly id="1476263507" type="building" color="255,230,230" fill="1" layer="-1.00" shape="1981.639135,4870.032502 1997.998844,4858.601200 2001.931362,4863.512716 1999.470269,4865.847520 1994.882129,4869.952834 2001.432430,4877.065539 1998.058149,4880.130684 1991.051109,4872.520200 1986.373891,4876.780417 1981.639135,4870.032502"/>
    <poly id="1476263508" type="building" color="255,230,230" fill="1" layer="-1.00" shape="2007.799436,4853.875456 2009.091688,4855.368806 2018.583044,4866.275785 2032.938088,4855.796274 2029.584840,4851.459960 2024.939259,4845.154567 2016.976610,4850.975287 2015.116153,4848.464194 2007.799436,4853.875456"/>