<?xml version="1.0" encoding="UTF-8"?>

<!-- generated on 2026-04-17T11:09:40.099186-05:00 by Eclipse SUMO netconvert 1.26.0
<netconvertConfiguration xmlns:xsi="http://www.w3.org/2001/XMLSchema-instance" xsi:noNamespaceSchemaLocation="http://sumo.dlr.de/xsd/netconvertConfiguration.xsd">

    <input>
        <osm-files value="C:\Users\xavie\Antigravity\TIC-VANET-Vehicular-Ad-hoc-Network-\output\map.osm"/>
    </input>

    <output>
        <output-file value="C:\Users\xavie\Antigravity\TIC-VANET-Vehicular-Ad-hoc-Network-\output\mapa.net.xml"/>
    </output>

    <projection>
        <proj.utm value="true"/>
    </projection>

    <processing>
        <geometry.remove value="true"/>
        <edges.join value="true"/>
    </processing>

    <ramp_guessing>
        <ramps.guess value="true"/>
    </ramp_guessing>

    <edge_removal>
        <remove-edges.isolated value="true"/>
    </edge_removal>

</netconvertConfiguration>
-->

<net version="1.20" junctionCornerDetail="5" limitTurnSpeed="5.50" xmlns:xsi="http://www.w3.org/2001/XMLSchema-instance" xsi:noNamespaceSchemaLocation="http://sumo.dlr.de/xsd/net_file.xsd">

    <location netOffset="-774341.10,29419.89" convBoundary="0.00,0.00,4278.60,5953.93" origBoundary="-78.535324,-0.265923,-78.496900,-0.212097" projParameter="+proj=utm +zone=17 +ellps=WGS84 +datum=WGS84 +units=m +no_defs"/>

    <type id="highway.cycleway" priority="1" numLanes="1" speed="5.56" allow="bicycle" oneway="0" width="2.00"/>
    <type id="highway.footway" priority="1" numLanes="1" speed="2.78" allow="pedestrian" oneway="1" width="2.00"/>
    <type id="highway.living_street" priority="2" numLanes="1" speed="2.78" disallow="tram rail_urban rail rail_electric rail_fast ship container cable_car subway aircraft wheelchair scooter drone" oneway="0"/>
    <type id="highway.path" priority="1" numLanes="1" speed="5.56" allow="pedestrian bicycle" oneway="0" width="2.00"/>
    <type id="highway.pedestrian" priority="1" numLanes="1" speed="2.78" allow="pedestrian" oneway="1" width="2.00"/>
    <type id="highway.primary" priority="12" numLanes="2" speed="27.78" disallow="tram rail_urban rail rail_electric rail_fast ship container cable_car subway aircraft wheelchair scooter drone" oneway="0"/>
    <type id="highway.primary_link" priority="7" numLanes="1" speed="22.22" disallow="tram rail_urban rail rail_electric rail_fast ship container cable_car subway aircraft wheelchair scooter drone" oneway="0"/>
    <type id="highway.residential" priority="3" numLanes="1" speed="13.89" disallow="tram rail_urban rail rail_electric rail_fast ship container cable_car subway aircraft wheelchair scooter drone" oneway="0"/>
    <type id="highway.secondary" priority="11" numLanes="1" speed="27.78" disallow="tram rail_urban rail rail_electric rail_fast ship container cable_car subway aircraft wheelchair scooter drone" oneway="0"/>
    <type id="highway.service" priority="1" numLanes="1" speed="5.56" allow="pedestrian delivery bicycle" oneway="0"/>
    <type id="highway.service|psv" priority="1" numLanes="1" speed="13.89" allow="pedestrian bus delivery bicycle" oneway="0"/>
    <type id="highway.steps" priority="1" numLanes="1" speed="1.39" allow="pedestrian" oneway="1" width="2.00"/>
    <type id="highway.tertiary" priority="10" numLanes="1" speed="22.22" disallow="tram rail_urban rail rail_electric rail_fast ship container cable_car subway aircraft wheelchair scooter drone" oneway="0"/>
    <type id="railway.subway" priority="18" numLanes="1" speed="27.78" allow="subway" oneway="1"/>

    <edge id=":10004545760_0" function="internal">
        <lane id=":10004545760_0_0" index="0" disallow="tram rail_urban rail rail_electric rail_fast ship container cable_car subway aircraft wheelchair scooter drone" speed="13.89" length="8.79" shape="1902.35,4901.42 1907.88,4908.25"/>
    </edge>
    <edge id=":10004545760_1" function="internal">
        <lane id=":10004545760_1_0" index="0" disallow="tram rail_urban rail rail_electric rail_fast ship container cable_car subway aircraft wheelchair scooter drone" speed="6.16" length="7.28" shape="1902.35,4901.42 1903.51,4903.32 1903.96,4905.05 1903.69,4906.60 1902.70,4907.98"/>
    </edge>
    <edge id=":10004552905_0" function="internal">
        <lane id=":10004552905_0_0" index="0" allow="pedestrian delivery bicycle" speed="3.68" length="2.04" shape="2011.57,5223.91 2011.16,5223.53 2010.72,5223.36 2010.26,5223.40 2009.77,5223.64"/>
    </edge>
    <edge id=":10004552905_1" function="internal">
        <lane id=":10004552905_1_0" index="0" disallow="tram rail_urban rail rail_electric rail_fast ship container cable_car subway aircraft wheelchair scooter drone" speed="13.89" length="5.80" shape="2011.57,5223.91 2007.86,5219.45"/>
    </edge>
    <edge id=":10004552905_2" function="internal">
        <lane id=":10004552905_2_0" index="0" allow="pedestrian delivery bicycle" speed="4.44" length="3.87" shape="2011.57,5223.91 2010.87,5222.88 2010.61,5221.97 2010.78,5221.20 2011.39,5220.56"/>
    </edge>
    <edge id=":10004552905_3" function="internal">
        <lane id=":10004552905_3_0" index="0" allow="pedestrian delivery bicycle" speed="3.40" length="1.81" shape="2007.94,5221.02 2008.22,5220.72 2008.31,5220.36 2008.19,5219.93 2007.86,5219.45"/>
    </edge>
    <edge id=":10004552905_4" function="internal">
        <lane id=":10004552905_4_0" index="0" allow="pedestrian delivery bicycle" speed="5.56" length="3.60" shape="2007.94,5221.02 2008.88,5220.67 2009.66,5220.79 2010.45,5220.91 2011.39,5220.56"/>
    </edge>
    <edge id=":10004552905_5" function="internal">
        <lane id=":10004552905_5_0" index="0" allow="pedestrian delivery bicycle" speed="3.65" length="4.67" shape="2007.94,5221.02 2009.38,5220.99 2010.17,5221.41 2010.30,5222.30 2009.77,5223.64"/>
    </edge>
    <edge id=":10004552906_0" function="internal">
        <lane id=":10004552906_0_0" index="0" allow="pedestrian delivery bicycle" speed="3.65" length="4.67" shape="1955.86,5263.35 1954.42,5263.42 1953.62,5263.01 1953.47,5262.13 1953.96,5260.77"/>
    </edge>
    <edge id=":1005358963_0" function="internal">
        <lane id=":1005358963_0_0" index="0" disallow="tram rail_urban rail rail_electric rail_fast ship container cable_car subway aircraft wheelchair scooter drone" speed="13.89" length="5.16" shape="2204.87,5237.94 2208.89,5234.71"/>
    </edge>
    <edge id=":1005735167_0" function="internal">
        <lane id=":1005735167_0_0" index="0" disallow="tram rail_urban rail rail_electric rail_fast ship container cable_car subway aircraft wheelchair scooter drone" speed="13.89" length="8.28" shape="2183.67,5418.25 2181.68,5416.86 2180.47,5415.69 2179.38,5414.38 2177.75,5412.54"/>
    </edge>
    <edge id=":1005740052_0" function="internal">
        <lane id=":1005740052_0_0" index="0" allow="pedestrian delivery bicycle" speed="4.95" length="5.11" shape="2059.25,5281.79 2058.23,5280.81 2057.16,5280.42 2056.05,5280.64 2054.88,5281.45"/>
    </edge>
    <edge id=":1005740052_1" function="internal">
        <lane id=":1005740052_1_0" index="0" disallow="tram rail_urban rail rail_electric rail_fast ship container cable_car subway aircraft wheelchair scooter drone" speed="13.89" length="9.47" shape="2059.25,5281.79 2053.33,5274.41"/>
    </edge>
    <edge id=":1005740052_2" function="internal">
        <lane id=":1005740052_2_0" index="0" allow="pedestrian delivery bicycle" speed="5.28" length="5.33" shape="2052.70,5279.11 2053.69,5277.92 2054.13,5276.74 2054.01,5275.57 2053.33,5274.41"/>
    </edge>
    <edge id=":1005740052_3" function="internal">
        <lane id=":1005740052_3_0" index="0" allow="pedestrian delivery bicycle" speed="3.65" length="4.67" shape="2052.70,5279.11 2054.12,5278.88 2054.96,5279.19 2055.21,5280.04 2054.88,5281.45"/>
    </edge>
    <edge id=":1005740514_0" function="internal">
        <lane id=":1005740514_0_0" index="0" allow="pedestrian delivery bicycle" speed="3.65" length="4.67" shape="2040.88,5305.12 2041.30,5306.49 2041.11,5307.37 2040.29,5307.73 2038.86,5307.60"/>
    </edge>
    <edge id=":1005844311_0" function="internal">
        <lane id=":1005844311_0_0" index="0" disallow="tram rail_urban rail rail_electric rail_fast ship container cable_car subway aircraft wheelchair scooter drone" speed="6.67" length="9.32" shape="1756.92,4954.30 1755.40,4952.36 1753.57,4951.37 1751.42,4951.32 1748.96,4952.22"/>
    </edge>
    <edge id=":1005844311_1" function="internal">
        <lane id=":1005844311_1_0" index="0" disallow="tram rail_urban rail rail_electric rail_fast ship container cable_car subway aircraft wheelchair scooter drone" speed="13.89" length="14.48" shape="1756.92,4954.30 1749.50,4941.87"/>
    </edge>
    <edge id=":1005844311_2" function="internal">
        <lane id=":1005844311_2_0" index="0" disallow="tram rail_urban rail rail_electric rail_fast ship container cable_car subway aircraft wheelchair scooter drone" speed="6.34" length="9.04" shape="1747.47,4949.39 1749.50,4947.92 1750.52,4946.18 1750.51,4944.16 1749.50,4941.87"/>
    </edge>
    <edge id=":1005844311_3" function="internal">
        <lane id=":1005844311_3_0" index="0" disallow="tram rail_urban rail rail_electric rail_fast ship container cable_car subway aircraft wheelchair scooter drone" speed="3.65" length="1.44" shape="1747.47,4949.39 1748.91,4949.54"/>
    </edge>
    <edge id=":1005844311_4" function="internal">
        <lane id=":1005844311_4_0" index="0" disallow="tram rail_urban rail rail_electric rail_fast ship container cable_car subway aircraft wheelchair scooter drone" speed="3.65" length="3.23" shape="1748.91,4949.54 1749.63,4950.06 1749.65,4950.95 1748.96,4952.22"/>
    </edge>
    <edge id=":1005844536_0" function="internal">
        <lane id=":1005844536_0_0" index="0" disallow="tram rail_urban rail rail_electric rail_fast ship container cable_car subway aircraft wheelchair scooter drone" speed="3.65" length="4.67" shape="1665.47,4996.60 1664.04,4996.46 1663.31,4995.94 1663.28,4995.05 1663.97,4993.78"/>
    </edge>
    <edge id=":10879327816_0" function="internal">
        <lane id=":10879327816_0_0" index="0" disallow="tram rail_urban rail rail_electric rail_fast ship container cable_car subway aircraft wheelchair scooter drone" speed="13.89" length="0.25" shape="3061.75,4733.30 3061.79,4733.48"/>
        <lane id=":10879327816_0_1" index="1" disallow="tram rail_urban rail rail_electric rail_fast ship container cable_car subway aircraft wheelchair scooter drone" speed="13.89" length="0.25" shape="3058.68,4732.39 3058.67,4732.48 3058.68,4732.54 3058.69,4732.60 3058.68,4732.69"/>
    </edge>
    <edge id=":10879354223_0" function="internal">
        <lane id=":10879354223_0_0" index="0" disallow="tram rail_urban rail rail_electric rail_fast ship container cable_car subway aircraft wheelchair scooter drone" speed="13.89" length="5.28" shape="3054.62,4762.85 3052.01,4767.42"/>
        <lane id=":10879354223_0_1" index="1" disallow="tram rail_urban rail rail_electric rail_fast ship container cable_car subway aircraft wheelchair scooter drone" speed="13.89" length="5.28" shape="3051.85,4761.25 3049.22,4765.85"/>
    </edge>
    <edge id=":10879428890_0" function="internal">
        <lane id=":10879428890_0_0" index="0" allow="bus bicycle" speed="5.56" length="8.08" shape="3057.08,4727.43 3055.23,4735.29"/>
    </edge>
    <edge id=":10879428897_0" function="internal">
        <lane id=":10879428897_0_0" index="0" allow="bus bicycle" speed="13.89" length="5.29" shape="3050.27,4731.31 3051.65,4726.20"/>
    </edge>
    <edge id=":10879451234_0" function="internal">
        <lane id=":10879451234_0_0" index="0" disallow="tram rail_urban rail rail_electric rail_fast ship container cable_car subway aircraft wheelchair scooter drone" speed="22.22" length="1.65" shape="3007.40,4807.98 3008.93,4808.62"/>
    </edge>
    <edge id=":10905343589_0" function="internal">
        <lane id=":10905343589_0_0" index="0" allow="pedestrian delivery bicycle" speed="5.56" length="1.75" shape="2009.61,5223.75 2008.18,5224.76"/>
    </edge>
    <edge id=":10905343589_1" function="internal">
        <lane id=":10905343589_1_0" index="0" allow="pedestrian delivery bicycle" speed="3.65" length="1.44" shape="2009.61,5223.75 2008.17,5223.79"/>
    </edge>
    <edge id=":10905343589_4" function="internal">
        <lane id=":10905343589_4_0" index="0" allow="pedestrian delivery bicycle" speed="3.65" length="3.23" shape="2008.17,5223.79 2007.38,5223.36 2007.25,5222.48 2007.77,5221.13"/>
    </edge>
    <edge id=":10905343589_2" function="internal">
        <lane id=":10905343589_2_0" index="0" allow="pedestrian delivery bicycle" speed="5.56" length="1.76" shape="2006.33,5222.14 2007.77,5221.13"/>
    </edge>
    <edge id=":10905343589_3" function="internal">
        <lane id=":10905343589_3_0" index="0" allow="pedestrian delivery bicycle" speed="3.65" length="1.44" shape="2006.33,5222.14 2007.78,5222.11"/>
    </edge>
    <edge id=":10905343589_5" function="internal">
        <lane id=":10905343589_5_0" index="0" allow="pedestrian delivery bicycle" speed="3.65" length="3.23" shape="2007.78,5222.11 2008.56,5222.53 2008.70,5223.41 2008.18,5224.76"/>
    </edge>
    <edge id=":10905531261_0" function="internal">
        <lane id=":10905531261_0_0" index="0" disallow="tram rail_urban rail rail_electric rail_fast ship container cable_car subway aircraft wheelchair scooter drone" speed="13.89" length="2.64" shape="2341.52,4868.78 2339.72,4866.84"/>
    </edge>
    <edge id=":10908413928_0" function="internal">
        <lane id=":10908413928_0_0" index="0" allow="bus bicycle" speed="5.56" length="5.25" shape="2999.49,4911.16 2998.91,4916.37"/>
    </edge>
    <edge id=":1108626084_0" function="internal">
        <lane id=":1108626084_0_0" index="0" disallow="tram rail_urban rail rail_electric rail_fast ship container cable_car subway aircraft wheelchair scooter drone" speed="6.07" length="6.77" shape="3040.07,4941.36 3039.25,4942.60 3039.05,4944.04 3039.49,4945.68 3040.57,4947.51"/>
    </edge>
    <edge id=":1108626084_1" function="internal">
        <lane id=":1108626084_1_0" index="0" disallow="tram rail_urban rail rail_electric rail_fast ship container cable_car subway aircraft wheelchair scooter drone" speed="10.76" length="8.27" shape="3040.07,4941.36 3038.27,4942.93 3036.77,4943.68 3035.05,4943.98 3032.61,4944.22"/>
    </edge>
    <edge id=":1108626084_2" function="internal">
        <lane id=":1108626084_2_0" index="0" disallow="tram rail_urban rail rail_electric rail_fast ship container cable_car subway aircraft wheelchair scooter drone" speed="13.89" length="10.96" shape="3036.36,4937.52 3037.08,4940.57 3037.79,4942.82 3038.84,4944.93 3040.57,4947.51"/>
    </edge>
    <edge id=":1108626084_3" function="internal">
        <lane id=":1108626084_3_0" index="0" disallow="tram rail_urban rail rail_electric rail_fast ship container cable_car subway aircraft wheelchair scooter drone" speed="6.25" length="4.31" shape="3036.36,4937.52 3036.66,4940.23 3036.26,4941.77"/>
    </edge>
    <edge id=":1108626084_4" function="internal">
        <lane id=":1108626084_4_0" index="0" disallow="tram rail_urban rail rail_electric rail_fast ship container cable_car subway aircraft wheelchair scooter drone" speed="6.25" length="4.67" shape="3036.26,4941.77 3036.13,4942.26 3034.78,4943.59 3032.61,4944.22"/>
    </edge>
    <edge id=":11133628389_0" function="internal">
        <lane id=":11133628389_0_0" index="0" allow="pedestrian delivery bicycle" speed="3.65" length="4.67" shape="2462.68,5518.46 2461.25,5518.57 2460.44,5518.18 2460.26,5517.31 2460.72,5515.94"/>
    </edge>
    <edge id=":11133628394_0" function="internal">
        <lane id=":11133628394_0_0" index="0" allow="pedestrian delivery bicycle" speed="4.30" length="3.44" shape="2517.68,5508.34 2517.11,5507.62 2516.45,5506.81 2515.78,5506.27 2515.17,5506.35"/>
    </edge>
    <edge id=":11133628394_1" function="internal">
        <lane id=":11133628394_1_0" index="0" disallow="tram rail_urban rail rail_electric rail_fast ship container cable_car subway aircraft wheelchair scooter drone" speed="13.89" length="9.40" shape="2517.68,5508.34 2511.57,5501.19"/>
    </edge>
    <edge id=":11133628394_2" function="internal">
        <lane id=":11133628394_2_0" index="0" allow="pedestrian delivery bicycle" speed="4.41" length="3.45" shape="2512.79,5504.19 2512.99,5503.74 2512.86,5503.10 2512.38,5502.25 2511.57,5501.19"/>
    </edge>
    <edge id=":11133628394_3" function="internal">
        <lane id=":11133628394_3_0" index="0" allow="pedestrian delivery bicycle" speed="3.65" length="4.69" shape="2512.79,5504.19 2514.20,5503.84 2515.06,5504.08 2515.39,5504.92 2515.17,5506.35"/>
    </edge>
    <edge id=":11135269234_0" function="internal">
        <lane id=":11135269234_0_0" index="0" allow="pedestrian delivery bicycle" speed="5.56" length="4.86" shape="2515.02,5506.49 2513.93,5507.43 2513.14,5508.01 2512.32,5508.58 2511.18,5509.46"/>
    </edge>
    <edge id=":11135269234_1" function="internal">
        <lane id=":11135269234_1_0" index="0" allow="pedestrian delivery bicycle" speed="3.65" length="1.45" shape="2515.02,5506.49 2513.62,5506.84"/>
    </edge>
    <edge id=":11135269234_4" function="internal">
        <lane id=":11135269234_4_0" index="0" allow="pedestrian delivery bicycle" speed="3.65" length="3.24" shape="2513.62,5506.84 2512.75,5506.59 2512.43,5505.76 2512.65,5504.32"/>
    </edge>
    <edge id=":11135269234_2" function="internal">
        <lane id=":11135269234_2_0" index="0" allow="pedestrian delivery bicycle" speed="5.56" length="4.30" shape="2509.22,5506.93 2512.65,5504.32"/>
    </edge>
    <edge id=":11135269234_3" function="internal">
        <lane id=":11135269234_3_0" index="0" allow="pedestrian delivery bicycle" speed="3.65" length="1.44" shape="2509.22,5506.93 2510.66,5506.83"/>
    </edge>
    <edge id=":11135269234_5" function="internal">
        <lane id=":11135269234_5_0" index="0" allow="pedestrian delivery bicycle" speed="3.65" length="3.23" shape="2510.66,5506.83 2511.47,5507.22 2511.64,5508.10 2511.18,5509.46"/>
    </edge>
    <edge id=":11135269239_0" function="internal">
        <lane id=":11135269239_0_0" index="0" allow="pedestrian delivery bicycle" speed="3.65" length="4.67" shape="2457.86,5397.77 2457.68,5396.33 2458.02,5395.51 2458.89,5395.29 2460.28,5395.67"/>
    </edge>
    <edge id=":11135269242_0" function="internal">
        <lane id=":11135269242_0_0" index="0" allow="pedestrian delivery bicycle" speed="5.56" length="3.03" shape="2461.09,5435.81 2458.69,5437.67"/>
    </edge>
    <edge id=":11135269242_1" function="internal">
        <lane id=":11135269242_1_0" index="0" allow="pedestrian delivery bicycle" speed="3.65" length="1.44" shape="2461.09,5435.81 2459.65,5435.91"/>
    </edge>
    <edge id=":11135269242_4" function="internal">
        <lane id=":11135269242_4_0" index="0" allow="pedestrian delivery bicycle" speed="3.65" length="3.23" shape="2459.65,5435.91 2458.84,5435.52 2458.67,5434.64 2459.13,5433.28"/>
    </edge>
    <edge id=":11135269242_2" function="internal">
        <lane id=":11135269242_2_0" index="0" allow="pedestrian delivery bicycle" speed="5.56" length="3.07" shape="2456.71,5435.16 2459.13,5433.28"/>
    </edge>
    <edge id=":11135269242_3" function="internal">
        <lane id=":11135269242_3_0" index="0" allow="pedestrian delivery bicycle" speed="3.65" length="1.44" shape="2456.71,5435.16 2458.15,5435.04"/>
    </edge>
    <edge id=":11135269242_5" function="internal">
        <lane id=":11135269242_5_0" index="0" allow="pedestrian delivery bicycle" speed="3.65" length="3.23" shape="2458.15,5435.04 2458.96,5435.42 2459.14,5436.30 2458.69,5437.67"/>
    </edge>
    <edge id=":11135269243_0" function="internal">
        <lane id=":11135269243_0_0" index="0" disallow="tram rail_urban rail rail_electric rail_fast ship container cable_car subway aircraft wheelchair scooter drone" speed="13.89" length="8.24" shape="2458.79,5440.23 2453.02,5434.35"/>
    </edge>
    <edge id=":11135269243_1" function="internal">
        <lane id=":11135269243_1_0" index="0" allow="pedestrian delivery bicycle" speed="5.23" length="5.92" shape="2458.79,5440.23 2457.26,5438.50 2456.37,5437.10 2456.14,5436.03 2456.55,5435.28"/>
    </edge>
    <edge id=":11135269243_2" function="internal">
        <lane id=":11135269243_2_0" index="0" allow="pedestrian delivery bicycle" speed="5.95" length="6.79" shape="2458.54,5437.79 2457.74,5437.94 2456.55,5437.41 2454.98,5436.21 2453.02,5434.35"/>
    </edge>
    <edge id=":11135269243_3" function="internal">
        <lane id=":11135269243_3_0" index="0" allow="pedestrian delivery bicycle" speed="3.65" length="4.67" shape="2458.54,5437.79 2457.10,5437.91 2456.29,5437.53 2456.11,5436.65 2456.55,5435.28"/>
    </edge>
    <edge id=":11135682630_0" function="internal">
        <lane id=":11135682630_0_0" index="0" allow="pedestrian delivery bicycle" speed="3.65" length="4.67" shape="2053.81,5382.65 2053.62,5381.22 2053.95,5380.39 2054.81,5380.16 2056.21,5380.53"/>
    </edge>
    <edge id=":11135682635_0" function="internal">
        <lane id=":11135682635_0_0" index="0" allow="pedestrian delivery bicycle" speed="5.56" length="9.00" shape="2047.21,5456.40 2045.33,5454.47 2044.11,5452.95 2042.71,5451.82 2040.27,5451.06"/>
    </edge>
    <edge id=":11135682635_1" function="internal">
        <lane id=":11135682635_1_0" index="0" allow="pedestrian delivery bicycle" speed="5.56" length="11.07" shape="2047.21,5456.40 2045.17,5454.05 2044.51,5451.72 2045.23,5449.41 2047.34,5447.12"/>
    </edge>
    <edge id=":11135682635_2" function="internal">
        <lane id=":11135682635_2_0" index="0" allow="pedestrian delivery bicycle" speed="3.65" length="4.67" shape="2047.21,5456.40 2046.82,5455.01 2047.04,5454.15 2047.87,5453.80 2049.30,5453.98"/>
    </edge>
    <edge id=":11135682635_3" function="internal">
        <lane id=":11135682635_3_0" index="0" allow="pedestrian delivery bicycle" speed="4.87" length="5.22" shape="2049.36,5449.60 2048.37,5450.68 2048.03,5451.77 2048.34,5452.87 2049.30,5453.98"/>
    </edge>
    <edge id=":11135682635_4" function="internal">
        <lane id=":11135682635_4_0" index="0" allow="pedestrian delivery bicycle" speed="5.56" length="9.49" shape="2049.36,5449.60 2047.63,5450.64 2045.53,5451.23 2043.08,5451.37 2040.27,5451.06"/>
    </edge>
    <edge id=":11135682635_5" function="internal">
        <lane id=":11135682635_5_0" index="0" allow="pedestrian delivery bicycle" speed="3.65" length="4.67" shape="2049.36,5449.60 2047.93,5449.74 2047.11,5449.37 2046.92,5448.50 2047.34,5447.12"/>
    </edge>
    <edge id=":11135682635_6" function="internal">
        <lane id=":11135682635_6_0" index="0" allow="pedestrian delivery bicycle" speed="5.56" length="5.93" shape="2041.93,5448.32 2043.09,5448.78 2044.38,5448.73 2045.80,5448.18 2047.34,5447.12"/>
    </edge>
    <edge id=":11135682635_7" function="internal">
        <lane id=":11135682635_7_0" index="0" allow="pedestrian delivery bicycle" speed="5.56" length="9.31" shape="2041.93,5448.32 2044.23,5449.84 2045.76,5450.96 2047.21,5452.17 2049.30,5453.98"/>
    </edge>
    <edge id=":11135682635_8" function="internal">
        <lane id=":11135682635_8_0" index="0" allow="pedestrian delivery bicycle" speed="3.84" length="4.68" shape="2041.93,5448.32 2042.54,5449.62 2042.47,5450.52 2041.71,5450.99 2040.27,5451.06"/>
    </edge>
    <edge id=":11135682636_0" function="internal">
        <lane id=":11135682636_0_0" index="0" allow="pedestrian delivery bicycle" speed="5.11" length="4.93" shape="2071.91,5435.10 2070.87,5434.25 2069.80,5433.92 2068.69,5434.10 2067.54,5434.79"/>
    </edge>
    <edge id=":11135682636_1" function="internal">
        <lane id=":11135682636_1_0" index="0" allow="pedestrian delivery bicycle" speed="5.56" length="8.63" shape="2071.91,5435.10 2070.38,5433.14 2069.41,5431.18 2068.99,5429.22 2069.13,5427.27"/>
    </edge>
    <edge id=":11135682636_2" function="internal">
        <lane id=":11135682636_2_0" index="0" allow="pedestrian delivery bicycle" speed="3.65" length="4.67" shape="2071.91,5435.10 2071.69,5433.67 2072.00,5432.84 2072.86,5432.59 2074.26,5432.93"/>
    </edge>
    <edge id=":11135682636_3" function="internal">
        <lane id=":11135682636_3_0" index="0" allow="pedestrian delivery bicycle" speed="5.56" length="5.57" shape="2072.26,5427.95 2072.20,5429.11 2072.52,5430.33 2073.20,5431.60 2074.26,5432.93"/>
    </edge>
    <edge id=":11135682636_4" function="internal">
        <lane id=":11135682636_4_0" index="0" allow="pedestrian delivery bicycle" speed="5.56" length="8.59" shape="2072.26,5427.95 2071.61,5430.36 2070.78,5431.91 2069.52,5433.18 2067.54,5434.79"/>
    </edge>
    <edge id=":11135682636_5" function="internal">
        <lane id=":11135682636_5_0" index="0" allow="pedestrian delivery bicycle" speed="3.65" length="4.67" shape="2072.26,5427.95 2071.23,5428.95 2070.36,5429.17 2069.66,5428.61 2069.13,5427.27"/>
    </edge>
    <edge id=":11135682636_6" function="internal">
        <lane id=":11135682636_6_0" index="0" allow="pedestrian delivery bicycle" speed="5.56" length="6.41" shape="2065.52,5432.31 2067.01,5431.12 2067.98,5430.19 2068.63,5429.06 2069.13,5427.27"/>
    </edge>
    <edge id=":11135682636_7" function="internal">
        <lane id=":11135682636_7_0" index="0" allow="pedestrian delivery bicycle" speed="5.56" length="9.86" shape="2065.52,5432.31 2067.82,5430.92 2070.04,5430.56 2072.19,5431.23 2074.26,5432.93"/>
    </edge>
    <edge id=":11135682636_8" function="internal">
        <lane id=":11135682636_8_0" index="0" allow="pedestrian delivery bicycle" speed="3.65" length="4.67" shape="2065.52,5432.31 2066.96,5432.17 2067.77,5432.54 2067.97,5433.41 2067.54,5434.79"/>
    </edge>
    <edge id=":11135682646_0" function="internal">
        <lane id=":11135682646_0_0" index="0" allow="pedestrian delivery bicycle" speed="5.56" length="3.23" shape="2031.15,5457.03 2030.36,5457.58 2029.79,5457.92 2029.25,5458.30 2028.59,5458.98"/>
    </edge>
    <edge id=":11135682646_1" function="internal">
        <lane id=":11135682646_1_0" index="0" allow="pedestrian delivery bicycle" speed="3.65" length="1.44" shape="2031.15,5457.03 2029.71,5457.14"/>
    </edge>
    <edge id=":11135682646_4" function="internal">
        <lane id=":11135682646_4_0" index="0" allow="pedestrian delivery bicycle" speed="3.65" length="3.23" shape="2029.71,5457.14 2028.90,5456.75 2028.72,5455.87 2029.18,5454.51"/>
    </edge>
    <edge id=":11135682646_2" function="internal">
        <lane id=":11135682646_2_0" index="0" allow="pedestrian delivery bicycle" speed="5.56" length="3.88" shape="2026.16,5456.91 2026.94,5456.08 2027.57,5455.60 2028.24,5455.18 2029.18,5454.51"/>
    </edge>
    <edge id=":11135682646_3" function="internal">
        <lane id=":11135682646_3_0" index="0" allow="pedestrian delivery bicycle" speed="3.65" length="1.44" shape="2026.16,5456.91 2027.54,5456.51"/>
    </edge>
    <edge id=":11135682646_5" function="internal">
        <lane id=":11135682646_5_0" index="0" allow="pedestrian delivery bicycle" speed="3.65" length="3.23" shape="2027.54,5456.51 2028.41,5456.73 2028.76,5457.55 2028.59,5458.98"/>
    </edge>
    <edge id=":11152034897_0" function="internal">
        <lane id=":11152034897_0_0" index="0" allow="pedestrian delivery bicycle" speed="3.65" length="4.67" shape="1897.02,4627.68 1898.35,4627.12 1899.23,4627.23 1899.68,4628.00 1899.68,4629.44"/>
    </edge>
    <edge id=":11152034898_0" function="internal">
        <lane id=":11152034898_0_0" index="0" allow="pedestrian delivery bicycle" speed="3.65" length="4.67" shape="1871.93,4668.17 1870.57,4668.65 1869.69,4668.49 1869.29,4667.69 1869.37,4666.25"/>
    </edge>
    <edge id=":11152034899_0" function="internal">
        <lane id=":11152034899_0_0" index="0" allow="pedestrian delivery bicycle" speed="5.56" length="5.78" shape="1893.44,4645.83 1891.75,4645.25 1890.31,4645.16 1889.11,4645.55 1888.16,4646.42"/>
    </edge>
    <edge id=":11152034899_1" function="internal">
        <lane id=":11152034899_1_0" index="0" allow="pedestrian delivery bicycle" speed="5.56" length="10.99" shape="1893.44,4645.83 1890.84,4644.17 1889.55,4642.13 1889.56,4639.72 1890.88,4636.93"/>
    </edge>
    <edge id=":11152034899_2" function="internal">
        <lane id=":11152034899_2_0" index="0" allow="pedestrian delivery bicycle" speed="3.65" length="4.67" shape="1893.44,4645.83 1892.68,4644.60 1892.64,4643.71 1893.34,4643.15 1894.76,4642.91"/>
    </edge>
    <edge id=":11152034899_3" function="internal">
        <lane id=":11152034899_3_0" index="0" allow="pedestrian delivery bicycle" speed="4.89" length="5.20" shape="1893.55,4638.70 1892.92,4640.02 1892.92,4641.16 1893.53,4642.13 1894.76,4642.91"/>
    </edge>
    <edge id=":11152034899_4" function="internal">
        <lane id=":11152034899_4_0" index="0" allow="pedestrian delivery bicycle" speed="5.56" length="9.42" shape="1893.55,4638.70 1888.16,4646.42"/>
    </edge>
    <edge id=":11152034899_5" function="internal">
        <lane id=":11152034899_5_0" index="0" allow="pedestrian delivery bicycle" speed="3.65" length="4.67" shape="1893.55,4638.70 1892.22,4639.26 1891.33,4639.15 1890.88,4638.38 1890.88,4636.93"/>
    </edge>
    <edge id=":11152034899_6" function="internal">
        <lane id=":11152034899_6_0" index="0" allow="pedestrian delivery bicycle" speed="5.56" length="9.24" shape="1885.59,4644.51 1890.88,4636.93"/>
    </edge>
    <edge id=":11152034899_7" function="internal">
        <lane id=":11152034899_7_0" index="0" allow="pedestrian delivery bicycle" speed="5.56" length="10.16" shape="1885.59,4644.51 1887.37,4642.80 1889.49,4641.96 1891.95,4642.00 1894.76,4642.91"/>
    </edge>
    <edge id=":11152034899_8" function="internal">