<?xml version="1.0" encoding="UTF-8"?>

<!-- generated on 2026-04-17 11:09:44.412914 by Eclipse SUMO randomTrips.py v1_26_0+0000-fa7df22d7f1
<configuration>
    <net-file value="C:\Users\xavie\Antigravity\TIC-VANET-Vehicular-Ad-hoc-Network-\output\mapa.net.xml"/>
    <route-file value="C:\Users\xavie\Antigravity\TIC-VANET-Vehicular-Ad-hoc-Network-\output\mapa.rou.xml"/>
    <end value="100.0"/>
</configuration>
-->

<!-- generated on 2026-04-17T11:09:44.302860-05:00 by Eclipse SUMO duarouter 1.26.0
<duarouterConfiguration xmlns:xsi="http://www.w3.org/2001/XMLSchema-instance" xsi:noNamespaceSchemaLocation="http://sumo.dlr.de/xsd/duarouterConfiguration.xsd">

    <input>
        <net-file value="C:\Users\xavie\Antigravity\TIC-VANET-Vehicular-Ad-hoc-Network-\output\mapa.net.xml"/>
        <route-files value="trips.trips.xml"/>
    </input>

    <output>
        <output-file value="C:\Users\xavie\Antigravity\TIC-VANET-Vehicular-Ad-hoc-Network-\output\mapa.rou.xml"/>
        <alternatives-output value="NUL"/>
    </output>

    <time>
        <begin value="0"/>
        <end value="100.0"/>
    </time>

    <report>
        <no-warnings value="true"/>
        <ignore-errors value="true"/>
        <no-step-log value="true"/>
    </report>

</duarouterConfiguration>
-->

<routes xmlns:xsi="http://www.w3.org/2001/XMLSchema-instance" xsi:noNamespaceSchemaLocation="http://sumo.dlr.de/xsd/routes_file.xsd">
    <vehicle id="0" depart="0.00">
        <route edges="24734058#1 24734058#2 421545014#0 421545014#1 421545014#2 24714726#3 24714726#4 24714726#5"/>
    </vehicle>
    <vehicle id="1" depart="1.00">
        <route edges="421483699#5 421483699#6 351942429#3 351942429#4 351942429#5 431750569#0 431750569#1 431750569#2 431750569#3 541724221#0 541724221#1 541724221#2 431920752#0 431920752#1 431920752#2 31018346#0 31018346#1 24734056#0 24734056#1 24734056#2 24734056#3 24734056#4 24734056#5 24734056#6 24734056#7 24734056#8 24734056#9 24734056#10 24734056#11 24734056#12 24734056#13 24734056#14 24734056#15 24734056#16 24734056#17 24734056#18 24734056#19 409656672#0 409656672#1 409656672#2 420910319#0"/>
    </vehicle>
    <vehicle id="2" depart="2.00">
        <route edges="431770037#3 -112033751#5 -112033751#4 -112033751#3 -112033751#2 -112033751#1 -112033751#0 1164355176#0 1164355176#1 421514866#0 421514866#1 421514866#2 421514866#3 31018639#3 31018639#4 424981851#0 424981851#1 424981852#1 424981852#2 424981852#3 351942423#0 351942423#1 24714726#0 24714726#1 24714726#2 24714726#3 24714726#4 24714726#5 407392931#0 407392931#1 316739599#3 316739599#4 351942415#3 351942415#4 351942415#5 353552119#0 353552119#1 353552119#2 353552119#3 353552119#4 353552119#5 353552119#6 353552119#7 353552119#8 353552119#9 353552119#10 353552119#11 353552119#12 353552119#13 353552119#14 353552119#15 31018349#0 31018349#1 31018349#2 31018343#0 31018343#1 431735729 432183088#1 399725775#0 399725775#1 399725775#2 399725775#3 409656668#0 409656668#1 24925791#2 24925791#3 432247965#0 432247965#1 432247965#2 24925881#0 24925881#1 24925882#0 24925882#1 24925882#2 -420917629#2"/>
    </vehicle>
    <vehicle id="3" depart="3.00">
        <route edges="24714726#1 24714726#2 24714726#3 24714726#4 24714726#5 407392931#0 407392931#1 316739599#3 316739599#4 351942415#3 351942415#4 351942415#5 353552119#0 353552119#1 353552119#2 353552119#3 353552119#4 353552119#5 353552119#6 353552119#7 31154057#0 31154057#1 31154057#2 31154057#3 31154057#4 31154057#5 31154057#6 31154057#7 31281345#0 31281345#1 31281345#2 31281345#3 579621131#0 579621131#1 1087580812#0 1087580812#1 1087580812#2 31910404#0"/>
    </vehicle>
    <vehicle id="4" depart="4.00">
        <route edges="409656671#5 421482710#0 421482710#1 421482710#2 24715198#3 24715198#4 24715198#5 425197258#3 425197258#4 425197258#5 425197258#6 425197258#7 425197258#8 425197258#9 425197258#10 425197258#11 425197258#12 24918887#13 24918887#14 409656670#0 409656670#1 409656670#2 425379594#0 425379594#1 425379594#2 409656673#0 409656673#1 409656673#2 351942417#0 351942417#1 424766294#0 424766294#1 24714723#2 24714723#3 24714723#4 24714723#5 24714723#6 24714723#7 431770037#0 431770037#1 431770037#2 420901229#0 420901229#1 420901229#2 420901229#3 420901229#4 420901229#5 420901229#6 31266768#2 31266768#3 31266768#4 31052946#0 31052946#1 31052946#2 772490111#0 772490111#1 772490111#2 351942418#0 351942418#1 351942418#2"/>
    </vehicle>
    <vehicle id="5" depart="5.00">
        <route edges="24714726#3 24714726#4 24714726#5 407392931#0 407392931#1 316739599#3 316739599#4 351942415#3 351942415#4 351942415#5 353552119#0 353552119#1 353552119#2 24734059#0 24734059#1 24734059#2 424996864#0 424996864#1 424996864#2 424996865#0 424996865#1 896916223#0 896916223#1 353552123#0 353552123#1 353552123#2 353552123#3 353552123#4 353552123#5"/>
    </vehicle>
    <vehicle id="6" depart="6.00">
        <route edges="425379591#6 425379591#7 425379591#8 425379591#9 425379591#10 425379591#11 541724221#0 541724221#1 541724221#2 431920752#0 431920752#1 431920752#2 31018346#0 31018346#1 24734056#0 24734056#1 24734056#2 24734056#3 24734056#4 24734056#5 24734056#6 24734056#7 24734056#8 24734056#9 24734056#10 24734056#11 24734056#12 24734056#13 24734061#0 24734061#1 24734061#2 24734061#3 24734061#4 24734061#5 24734061#6 24734061#7 -112033751#2 -112033751#1 -112033751#0"/>
    </vehicle>
    <vehicle id="7" depart="7.00">
        <route edges="425379591#3 -31154057#6 -31154057#5 -31154057#4 -31154057#3 -31154057#2 -31154057#1 -31154057#0 353552119#8 353552119#9 353552119#10 353552119#11 353552119#12 104750523#0 104750523#1 104750523#2 24734056#5 24734056#6 24734056#7 24734068#0 24734068#1 24734068#2 24734068#3 24734068#4 -420912098#7 -420912098#6 -420912098#5 420912098#5 420912098#6 420912098#7"/>
    </vehicle>
    <vehicle id="8" depart="8.00">
        <route edges="24921233#4 432301134#1 432301134#2 24921239#0 24921239#1 432301135#0 432301135#1 420917631#0 420917631#1 420917631#2 71155600#0 71155600#1 71155600#2 -420917629#2 -420917629#1 -420917629#0 31154250#0 31154250#1 31154250#2 31154250#3 421483699#1 421483699#2 421483699#3 421483699#4 421483699#5 421483699#6 351942429#3 351942429#4 351942429#5 431750569#0 431750569#1 431750569#2 431750569#3 541724221#0 541724221#1 541724221#2 431920752#0 431920752#1 431920752#2 31018346#0 31018346#1 24734056#0 24734056#1 24734056#2 24734056#3 24734056#4 24734056#5 24734056#6 24734056#7 24734056#8 24734056#9 24734056#10 24734056#11 24734056#12 24734056#13 24734061#0 24734061#1 24734061#2 24734061#3 24734061#4 24734061#5 24734061#6 24734061#7 -112033751#2 -112033751#1 -112033751#0 1164355176#0"/>
    </vehicle>
    <vehicle id="9" depart="9.00">
        <route edges="541724222#2 541724222#3 399725775#0 399725775#1 399725775#2 399725775#3 409656668#0 409656668#1 24925791#2 24925791#3 432247965#0 432247965#1 432247965#2 24925881#0 24925881#1 24925881#2 24925881#3 420912085#0 420912085#1 -61896086#2 -61896086#1 -61896086#0 24921232#0"/>
    </vehicle>
    <vehicle id="10" depart="10.00">
        <route edges="-420917631#2 -420917631#1 -420917631#0 432301134#0 432301134#1 432301134#2 24921239#0 24921239#1 296352791#0 296352791#1 296352791#2 296352791#3 296352791#4 296352791#5 431750574#0 431750574#1 431750574#2 431750574#3 -431750574#3 -431750574#2 -431750574#1 -431750574#0"/>
    </vehicle>
    <vehicle id="11" depart="11.00">
        <route edges="425625697#0 425625697#1 31282543#0 31282543#1 432247965#0 432247965#1 432247965#2 24925881#0 24925881#1 24925881#2 24925881#3 432246365#0 432246365#1 432246365#2 432246365#3 432246365#4 31281338#0 31281338#1 431735740#1 354423304#0 354423304#1 354423304#2"/>
    </vehicle>
    <vehicle id="12" depart="12.00">
        <route edges="425379591#4 425379591#5 425379591#6 425379591#7 425379591#8 425379591#9 425379591#10 425379591#11 541724222#0 541724222#1 541724222#2 541724222#3 399725775#0 399725775#1 399725775#2 399725775#3 409656668#0 409656668#1 24925791#2 24925791#3 432247965#0 432247965#1 432247965#2 31154250#0 31154250#1 31154250#2 31154250#3 421483699#1 421483699#2"/>
    </vehicle>
    <vehicle id="13" depart="13.00">
        <route edges="296352791#4 296352791#5 -296532165#2 -296532165#1 -296532165#0 -136201595#1 -136201595#0 432247965#0 432247965#1 432247965#2 31154250#0 31154250#1 31154250#2 31154250#3 421483699#1 421483699#2 421483699#3 421483699#4 421483699#5 421483699#6 351942429#3"/>
    </vehicle>
    <vehicle id="14" depart="14.00">
        <route edges="431735733#0 431735733#1 431920751#0 431920751#1 431920751#2 104750532#0 104750532#1 104750532#2 104750532#3 104750532#4 104750532#5 104750532#6 104750532#7 104750532#8 409656671#0 409656671#1 409656671#2 424996864#0 424996864#1 424996864#2 424996865#0 424996865#1 896916223#0 896916223#1 353552121#0"/>
    </vehicle>
    <vehicle id="15" depart="15.00">
        <route edges="24715194#0 24715194#1 24715194#2 420901230#0 420901230#1 420901230#2 420901230#3 420901230#4 200450935#0 200450935#1 200450935#2 24714723#4 24714723#5 24714723#6 24714723#7 431770037#0 431770037#1 431770037#2 431770037#3 -112033751#5 -112033751#4 -112033751#3 -112033751#2 -112033751#1 -112033751#0 1164355176#0 1164355176#1 421514866#0 421514866#1 421514866#2 421514866#3 31018639#3 31018639#4 24734061#4 24734061#5"/>
    </vehicle>
    <vehicle id="16" depart="16.00">
        <route edges="-420912098#3 -420912098#2 420912098#2 420912098#3 420912098#4 420912098#5 420912098#6 420912098#7 31018639#0 31018639#1 31018639#2 31018639#3 31018639#4 424981851#0 424981851#1 424981852#1 424981852#2 424981852#3 24714723#0 24714723#1 24714723#2 24714723#3 24714723#4 24714723#5 24714723#6 24714723#7 431770037#0 431770037#1 431770037#2 420901229#0 420901229#1 420901229#2 420901229#3 420901229#4 420901229#5 420901229#6 31266768#2 31266768#3 31266768#4 31052946#0 24715194#0 24715194#1 24715194#2"/>
    </vehicle>
    <vehicle id="17" depart="17.00">
        <route edges="409656668#1 24925791#2"/>
    </vehicle>
    <vehicle id="18" depart="18.00">
        <route edges="24925882#0 24925882#1 24925882#2 -24925882#2 -24925882#1 -24925882#0 24925881#2 24925881#3 432246365#0 432246365#1 432246365#2 432246365#3 432246365#4 31281338#0 31281338#1 431735740#1 354423304#0 354423304#1 354423304#2 354423304#3 354423304#4 354423304#5 354423304#6 354423304#7 354423304#8 1087580813#0 1087580813#1 765811706#0 765811706#1 31910404#0 31910404#1 31910404#2 31910404#3 420910333 24918887#0 24918887#1 24918887#2 24918887#3 24918887#4 24918887#5 24918887#6 24918887#7 24918887#8 24918887#9 24918887#10 24918887#11 24918887#12 24918887#13 24918887#14 409656670#0 409656670#1 409656670#2 425379594#0 425379594#1 425379594#2 409656673#0 409656673#1 409656673#2 351942417#0 351942417#1 424766294#0 424766294#1 24714723#2"/>
    </vehicle>
    <vehicle id="19" depart="19.00">
        <route edges="24734056#8 24734056#9 24734056#10 24734056#11 24734056#12 24734056#13 24734056#14 24734056#15 24734056#16 24734056#17 24734056#18 24734056#19 409656672#0 409656672#1 409656672#2 420910319#0 420910319#1 420910319#2 353552119#3 353552119#4 353552119#5 353552119#6 353552119#7 353552119#8 353552119#9 353552119#10 353552119#11 353552119#12 353552119#13 353552119#14 353552119#15 31018349#0 31018349#1 31018349#2 31018343#0 31018343#1 431735729 432183088#1 409656667#0 409656667#1 409656667#2 425625698#0 425625698#1 425625697#0 425625697#1 31282543#0 31282543#1 136201595#0 136201595#1 773685397#0 773685397#1 773685397#2 296532164#0 296532164#1 296532164#2 -432301133#5 -432301133#4 -432301133#3 432301133#3"/>
    </vehicle>
    <vehicle id="20" depart="20.00">
        <route edges="409656671#4 409656671#5 421482710#0 421482710#1 421482710#2 24715198#3 24715198#4 24715198#5 425197258#3 425197258#4 425197258#5 425197258#6 425197258#7 425197258#8 425197258#9 425197258#10 425197258#11 425197258#12 425379591#0 425379591#1 425379591#2 425379591#3 425379591#4 425379591#5 425379591#6 425379591#7 425379591#8 425379591#9 425379591#10 425379591#11 541724222#0 541724222#1 541724222#2 541724222#3 409656667#0 409656667#1 409656667#2 431924426#0 431924426#1 431924426#2 431924426#3 431924426#4 431924426#5 31281338#0 31281338#1 431735740#1 354423304#0 354423304#1 354423304#2 354423304#3 354423304#4 354423304#5 354423304#6 354423304#7"/>
    </vehicle>
    <vehicle id="21" depart="21.00">
        <route edges="128476832#2 421482710#0 421482710#1 421482710#2 24715198#3 24715198#4 24715198#5 425197258#3 425197258#4 425197258#5 425197258#6 425197258#7 425197258#8 425197258#9 425197258#10 425197258#11 425197258#12 425379591#0 425379591#1 425379591#2 425379591#3 425379591#4 425379591#5 425379591#6 425379591#7 425379591#8 425379591#9 425379591#10 425379591#11 541724222#0 541724222#1 541724222#2 541724222#3 399725775#0 399725775#1 399725775#2 399725775#3 409656668#0 409656668#1 24925791#2 24925791#3 432247965#0 432247965#1 432247965#2 31154250#0 31154250#1 31154250#2 31154250#3 421483699#1 421483699#2"/>
    </vehicle>
    <vehicle id="22" depart="22.00">
        <route edges="128475745#2 24734056#2 24734056#3 24734056#4 24734056#5 24734056#6 24734056#7 24734056#8 24734056#9 24734056#10 24734056#11 24734056#12 24734056#13 24734056#14 24734056#15 24734056#16 24734056#17 24734056#18 24734056#19 409656672#0 409656672#1 409656672#2 420910319#0 420910319#1 420910319#2 353552119#3 353552119#4 353552119#5 353552119#6 353552119#7 353552119#8 353552119#9 353552119#10 353552119#11 353552119#12 353552119#13 353552119#14 353552119#15 31018349#0 31018349#1 31018349#2 31018343#0 31018343#1 431735729 432183088#1 409656667#0 409656667#1 409656667#2 425625698#0 425625698#1 425625697#0 425625697#1 31282543#0 31282543#1 136201595#0 136201595#1 773685397#0 773685397#1 773685397#2 296352791#3"/>
    </vehicle>
    <vehicle id="23" depart="23.00">
        <route edges="772490111#0 772490111#1 772490111#2 351942418#0 351942418#1 351942418#2 24714726#0 24714726#1 24714726#2 24714726#3 24714726#4 24714726#5 407392931#0 407392931#1 316739599#3 316739599#4 351942415#3 351942415#4 351942415#5 353552119#0 353552119#1 353552119#2 24734059#0 24734059#1 24734059#2 424996864#0 424996864#1 424996864#2 425197258#10 425197258#11 425197258#12 24918887#13 24918887#14 409656670#0 409656670#1"/>
    </vehicle>
    <vehicle id="24" depart="24.00">
        <route edges="353552119#0 353552119#1 353552119#2 353552119#3 353552119#4 353552119#5 353552119#6 353552119#7 31154057#0 31154057#1 31154057#2 31154057#3 31154057#4 31154057#5 31154057#6 31154057#7 31281345#0 31281345#1 31281345#2 31281345#3 579621131#0 579621131#1 1087580812#0 1087580812#1 1087580812#2 31910404#0 31910404#1 31910404#2 31910404#3 -420910321#1 -420910321#0 420910321#0 420910321#1"/>
    </vehicle>
    <vehicle id="25" depart="25.00">
        <route edges="425431688#2 31910441#0 31910441#1 31910441#2 24918887#0 24918887#1 24918887#2 24918887#3 24918887#4 24918887#5 24918887#6 24918887#7 24918887#8 24918887#9 24918887#10 24918887#11 24918887#12 24918887#13 24918887#14 409656671#0 409656671#1 409656671#2 409656671#3 409656671#4 409656671#5 421482710#0 421482710#1 421482710#2 24715198#3 24715198#4 24715198#5 425197258#3 425197258#4"/>
    </vehicle>
    <vehicle id="26" depart="26.00">
        <route edges="24715194#1 24715194#2 420901230#0 420901230#1 420901230#2 420901230#3 420901230#4 351942418#0 351942418#1 351942418#2 24714726#0 24714726#1 24714726#2 24714726#3 24714726#4 24714726#5 407392931#0 407392931#1 316739599#3 316739599#4 351942415#3 351942415#4 351942415#5 353552119#0 353552119#1 353552119#2 353552119#3 353552119#4 353552119#5 353552119#6 353552119#7 353552119#8 353552119#9 353552119#10 353552119#11 353552119#12 353552119#13 353552119#14 353552119#15 31018349#0 31018349#1 31018349#2 31018343#0 31018343#1 431735729 432183088#1 399725775#0 399725775#1 399725775#2 399725775#3 409656668#0 409656668#1 24925791#2 24925791#3 432247965#0 432247965#1 432247965#2 24925881#0 24925881#1 24925881#2 24925881#3 420912085#0 420912085#1 -61896086#2 -61896086#1 -61896086#0 24921232#0 24921232#1 24921232#2 -420917631#2 -420917631#1 -420917631#0 432301134#0 -24921233#4 -24921233#3 -24921233#2 -24921233#1"/>
    </vehicle>
    <vehicle id="27" depart="27.00">
        <route edges="24918887#7 24918887#8 24918887#9 24918887#10 24918887#11 24918887#12 24918887#13 24918887#14 409656670#0 409656670#1 409656670#2 353552119#6 353552119#7 353552119#8 353552119#9 353552119#10 353552119#11 353552119#12 104750523#0 104750523#1 104750523#2 24734056#5 24734056#6"/>
    </vehicle>
    <vehicle id="28" depart="28.00">
        <route edges="24714723#4 24714723#5 24714723#6 24714723#7 431770037#0 431770037#1 431770037#2 420901229#0 420901229#1 420901229#2 420901229#3 420901229#4 420901229#5 420901229#6 31266768#2 31266768#3 31266768#4 31052946#0 31052946#1 31052946#2 772490111#0 772490111#1 772490111#2 351942418#0 351942418#1 351942418#2 24714726#0 24714726#1 24714726#2 24714726#3 24714726#4 24714726#5 407392931#0 407392931#1 316739599#3 316739599#4 351942415#3 351942415#4 351942415#5 353552119#0 353552119#1 353552119#2 353552119#3 353552119#4 353552119#5 353552119#6 353552119#7 353552119#8 353552119#9 353552119#10 353552119#11 353552119#12 353552119#13 353552119#14 353552119#15 31018349#0 31018349#1 31018349#2 485956199#0"/>
    </vehicle>
    <vehicle id="29" depart="29.00">
        <route edges="431750569#1 431750569#2 431750569#3 541724222#0 541724222#1 541724222#2 541724222#3 409656667#0 409656667#1 409656667#2 431924426#0 431924426#1 431924426#2 431924426#3 431924426#4 431924426#5 31281338#0 31281338#1 431735740#1 354423304#0 354423304#1 354423304#2 354423304#3 354423304#4 354423304#5 354423304#6 354423304#7 354423304#8 1087580813#0 1087580813#1 765811706#0 765811706#1 31910404#0 31910404#1 31910404#2 31910404#3 420910333 24918887#0 24918887#1 24918887#2 24918887#3 24918887#4"/>
    </vehicle>
    <vehicle id="30" depart="30.00">
        <route edges="409656673#1 409656673#2 351942417#0 351942417#1 24714726#0 24714726#1 24714726#2 24714726#3 24714726#4 24714726#5 407392931#0 407392931#1 316739599#3 316739599#4 351942415#3 351942415#4 351942415#5 353552119#0 353552119#1 353552119#2 353552119#3 353552119#4 353552119#5 353552119#6 353552119#7 353552119#8 353552119#9 353552119#10 353552119#11 353552119#12 353552119#13 353552119#14 353552119#15 31018349#0 31018349#1 31018349#2 31018343#0 31018343#1 431735729 432183088#1 409656667#0 409656667#1 409656667#2 431924426#0 431924426#1 431924426#2 431924426#3 431924426#4 431924426#5 431735737#0 431735737#1 431735737#2 296532167#0 296532167#1"/>
    </vehicle>
    <vehicle id="31" depart="31.00">
        <route edges="24734056#6 24734056#7 24734056#8 24734056#9 24734056#10 24734056#11 24734056#12 24734056#13 24734056#14 24734056#15 24734056#16 24734056#17 24734056#18 24734056#19 409656672#0 409656672#1 409656672#2 420910320#0 420910320#1 24715206#0 24715206#1 24715206#2"/>
    </vehicle>
    <vehicle id="32" depart="32.00">
        <route edges="353552119#11 353552119#12 353552119#13 353552119#14 353552119#15 31018346#0 31018346#1 24734056#0 24734056#1 24734056#2"/>
    </vehicle>
    <vehicle id="33" depart="33.00">
        <route edges="353552123#2 353552123#3 353552123#4 353552123#5 353552123#6 353552123#7 353552123#8 353552123#9 353552123#10 36739013#0 36739013#1 36739013#2 431750569#0 431750569#1 431750569#2 431750569#3 541724221#0 541724221#1 541724221#2 431920752#0 431920752#1 431920752#2"/>
    </vehicle>
    <vehicle id="34" depart="34.00">
        <route edges="31018344#2 -31018349#2 -31018349#1 -31018349#0 31018346#0 31018346#1 24734056#0 24734056#1 24734056#2 24734056#3 24734056#4 24734056#5 24734056#6 24734056#7 24734056#8 24734056#9 24734056#10 24734056#11 24734056#12 24734056#13 24734056#14 24734056#15 24734056#16 24734056#17 24734056#18 24734056#19 409656673#0 409656673#1 409656673#2 351942417#0 351942417#1 24714726#0 24714726#1"/>
    </vehicle>
    <vehicle id="35" depart="35.00">
        <route edges="-420917631#1 -420917631#0 432301134#0 432301134#1 432301134#2 24921239#0 24921239#1 296352791#0 296352791#1 296352791#2 296352791#3 296352791#4 296352791#5 -296532165#2"/>
    </vehicle>
    <vehicle id="36" depart="36.00">
        <route edges="-432301133#4 -432301133#3 -432301133#2 -432301133#1 -432301133#0 -24925527#2 -24925527#1 -24925527#0 24921239#0 24921239#1 432301135#0 432301135#1 420917631#0 420917631#1 420917631#2 71155373#0 71155373#1 71155373#2 432246365#0 432246365#1 432246365#2 432246365#3 432246365#4 31281338#0 31281338#1 431735740#1 354423304#0 354423304#1 354423304#2 354423304#3 354423304#4 354423304#5 354423304#6 354423304#7 354423304#8 1087580813#0 1087580813#1 765811706#0 765811706#1 31910404#0 31910404#1 31910404#2 31910404#3 420910333 24918887#0 24918887#1 24918887#2 24918887#3 24918887#4 24918887#5 24918887#6 24918887#7 24918887#8 24918887#9 24918887#10 24918887#11 24918887#12 24918887#13 24918887#14 409656670#0 409656670#1 409656670#2 425379594#0 425379594#1 425379594#2 409656673#0 409656673#1 409656673#2 351942417#0 351942417#1 24714726#0 24714726#1 24714726#2 24714726#3 24714726#4 24714726#5 407392931#0 407392931#1"/>
    </vehicle>
    <vehicle id="37" depart="37.00">
        <route edges="425206975#1 425206975#2 431773480#1 431773480#2 425625695#0 425625695#1 425625695#2 353552123#0 353552123#1 353552123#2 24918887#9 24918887#10 24918887#11 24918887#12 24918887#13 24918887#14 409656670#0 409656670#1 409656670#2 353552119#6 353552119#7 353552119#8 353552119#9 353552119#10 353552119#11 353552119#12 104750523#0 104750523#1 104750523#2 24734056#5 24734056#6 24734056#7 24734068#0 24734068#1 24734068#2 24734068#3 24734068#4 -1087583194#1 -1087583194#0 311344833#0 311344833#1 311344833#2"/>
    </vehicle>
    <vehicle id="38" depart="38.00">
        <route edges="-31154057#2 -31154057#1 -31154057#0 353552119#8 353552119#9 353552119#10 353552119#11 353552119#12 353552119#13 353552119#14 353552119#15 31018349#0 31018349#1 31018349#2 31018343#0 31018343#1 431735729 432183088#1 409656667#0 409656667#1 409656667#2 425625698#0 425625698#1 425625697#0 425625697#1 31282543#0 31282543#1 136201595#0 136201595#1 773685397#0 773685397#1 773685397#2 296352791#3 296352791#4 296352791#5"/>
    </vehicle>
    <vehicle id="39" depart="39.00">
        <route edges="773685397#2 296352791#3 296352791#4 296352791#5 -296532165#2 -296532165#1 -296532165#0 -136201595#1 -136201595#0 432247965#0 432247965#1 432247965#2 24925881#0 24925881#1 24925881#2 24925881#3 432246365#0 432246365#1 432246365#2 432246365#3 432246365#4 31281338#0 31281338#1 431735740#1 354423304#0 354423304#1 354423304#2 354423304#3 354423304#4 354423304#5 354423304#6 354423304#7 354423304#8 1087580813#0 1087580813#1 765811706#0 765811706#1 31910404#0 31910404#1 31910404#2 31910404#3 420910333 24918887#0 24918887#1 24918887#2 24918887#3 24918887#4 24918887#5 351942414#2"/>
    </vehicle>
    <vehicle id="40" depart="40.00">
        <route edges="71155373#2 432246365#0 432246365#1 432246365#2 432246365#3 432246365#4 431735737#0 431735737#1 431735737#2"/>
    </vehicle>
    <vehicle id="41" depart="41.00">
        <route edges="-112033751#4 -112033751#3 -112033751#2 -112033751#1 -112033751#0 1164355176#0 1164355176#1 421514866#0 421514866#1 421514866#2 421514866#3 31018639#3 31018639#4 424981851#0 424981851#1 424981852#1 424981852#2 424981852#3 351942423#0 351942423#1 24714726#0 24714726#1 24714726#2 24714726#3 24714726#4 24714726#5 407392931#0 407392931#1 316739599#3 316739599#4 351942415#3 351942415#4 351942415#5 353552119#0 353552119#1 353552119#2 24734059#0 24734059#1 24734059#2 409656671#3 409656671#4 409656671#5 421482710#0"/>
    </vehicle>
    <vehicle id="42" depart="42.00">
        <route edges="420910320#0 420910320#1 420910320#2 420910320#3 24714726#3 24714726#4 24714726#5 407392931#0 407392931#1 316739599#3 316739599#4 351942415#3 351942415#4"/>
    </vehicle>
    <vehicle id="43" depart="43.00">
        <route edges="24734056#7 24734056#8 24734056#9 24734056#10 24734056#11 24734056#12 24734056#13 24734056#14 24734056#15 24734056#16 24734056#17 24734056#18 24734056#19 409656672#0 409656672#1 409656672#2 420910319#0 420910319#1 420910319#2 24734059#0 24734059#1 24734059#2 424996864#0 424996864#1 424996864#2 425197258#10 425197258#11 425197258#12 24918887#13 24918887#14 409656670#0 409656670#1"/>
    </vehicle>
    <vehicle id="44" depart="44.00">
        <route edges="-432525299#0 -432301133#5 -432301133#4 -432301133#3 -432301133#2 -432301133#1 -432301133#0 -24925527#2 -24925527#1 -24925527#0 24921239#0 24921239#1 432301135#0 432301135#1 420917631#0 420917631#1 420917631#2 71155600#0 71155600#1 71155600#2 -420917629#2 -420917629#1 -420917629#0 31154250#0 31154250#1 31154250#2 31154250#3 421483699#1 421483699#2 421483699#3 421483699#4 421483699#5 421483699#6 351942429#3 351942429#4 351942429#5 431750569#0 431750569#1 431750569#2 431750569#3 541724221#0 541724221#1 541724221#2 431920751#0 431920751#1 431920751#2 104750532#0 104750532#1 104750532#2 104750532#3 104750532#4 31154057#3 31154057#4 31154057#5 31154057#6"/>
    </vehicle>
    <vehicle id="45" depart="45.00">
        <route edges="31267018#2 420901230#0 420901230#1 420901230#2 420901230#3 420901230#4 351942418#0 351942418#1 351942418#2 24714726#0 24714726#1 24714726#2 24714726#3 24714726#4 24714726#5 407392931#0 407392931#1 316739599#3 316739599#4 351942415#3 351942415#4 351942415#5 353552119#0 353552119#1 353552119#2 24734059#0 24734059#1 24734059#2 424996864#0 424996864#1 424996864#2 425197258#10 425197258#11 425197258#12 425379591#0 425379591#1 425379591#2 425379591#3 425379591#4 425379591#5 425379591#6 425379591#7 425379591#8 425379591#9 425379591#10 425379591#11 541724222#0 541724222#1"/>
    </vehicle>
    <vehicle id="46" depart="46.00">
        <route edges="431750569#1 431750569#2 431750569#3 541724221#0 541724221#1 541724221#2 431920752#0 431920752#1 431920752#2 31018346#0 31018346#1 24734056#0 24734056#1 24734056#2"/>
    </vehicle>
    <vehicle id="47" depart="47.00">
        <route edges="31910394#1 31910394#2 24680728#3 24680728#4 24680728#5 31910357#0 31910357#1 31910357#2 354423304#6 354423304#7 354423304#8 1087580813#0 1087580813#1 765811706#0 765811706#1 31910404#0 31910404#1 31910404#2 31910404#3 420910333 24918887#0 24918887#1 24918887#2 24918887#3 24918887#4 24918887#5 24918887#6 24918887#7 24918887#8 24918887#9 24918887#10 24918887#11 24918887#12 24918887#13 24918887#14 409656671#0 409656671#1 409656671#2 409656671#3 409656671#4 409656671#5 431770538#0 431770538#1 31910549#0 31910549#1 31910549#2 149946841#0 149946841#1 149946841#2"/>
    </vehicle>
    <vehicle id="48" depart="48.00">
        <route edges="431975737#0 431975737#1 431773480#1 431773480#2 425625695#0 425625695#1 425625695#2 353552123#0 353552123#1 353552123#2 353552123#3 353552123#4 353552123#5 353552123#6 353552123#7 353552123#8 353552123#9 353552123#10 36739013#0 36739013#1 36739013#2 431750569#0 431750569#1 431750569#2"/>
    </vehicle>
    <vehicle id="49" depart="49.00">
        <route edges="24918880#0 24918880#1 420912098#0 420912098#1 420912098#2 420912098#3 420912098#4 128475745#0 128475745#1 128475745#2 24734056#2 24734056#3 24734056#4 24734056#5 24734056#6 24734056#7 24734056#8 24734056#9 24734056#10 24734056#11 24734056#12 24734056#13 24734056#14 24734056#15 24734056#16 24734056#17 24734056#18 24734056#19 409656672#0 409656672#1 409656672#2 420910319#0 420910319#1 420910319#2 24734059#0 24734059#1 24734059#2 424996864#0 424996864#1 424996864#2 425197258#10 425197258#11 425197258#12 24918887#13 24918887#14 409656670#0"/>
    </vehicle>
    <vehicle id="50" depart="50.00">
        <route edges="354423304#6 354423304#7 354423304#8 1087580813#0 1087580813#1 765811706#0 765811706#1 31910404#0 31910404#1 31910404#2 31910404#3 420910333 24918887#0 24918887#1 24918887#2 24918887#3 24918887#4 24918887#5 24918887#6 24918887#7 24918887#8 24918887#9 24918887#10 24918887#11 24918887#12 24918887#13 24918887#14 409656670#0 409656670#1 409656670#2 425379594#0 425379594#1 425379594#2 409656673#0 409656673#1 409656673#2 351942417#0 351942417#1 424766294#0 424766294#1 24714723#2 24714723#3 24714723#4 24714723#5 24714723#6 24714723#7 431770037#0 431770037#1 431770037#2 431770037#3 -112033751#5 -112033751#4 -112033751#3 112033751#3"/>
    </vehicle>
    <vehicle id="51" depart="51.00">
        <route edges="424981856#1 424981856#2 1087583194#0 1087583194#1 -420912098#7 -420912098#6 -420912098#5 128475745#0 128475745#1 128475745#2 24734056#2 24734056#3 24734056#4 24734056#5 24734056#6 24734056#7 24734056#8 24734056#9 24734056#10 24734056#11 24734056#12 24734056#13 24734056#14 24734056#15 24734056#16 24734056#17 24734056#18 24734056#19 409656673#0 409656673#1 409656673#2 351942417#0"/>
    </vehicle>
    <vehicle id="52" depart="52.00">
        <route edges="425197258#2 425197258#3 425197258#4 425197258#5 425197258#6 425197258#7 425197258#8 425197258#9 425197258#10 425197258#11 425197258#12 425379591#0 425379591#1 425379591#2 425379591#3 31154057#7 31281345#0 31281345#1 31281345#2 31281345#3 351942413#5 351942413#6 351942414#1 351942414#2 351942414#3"/>
    </vehicle>
    <vehicle id="53" depart="53.00">
        <route edges="-24666745#0 -431750574#3 -431750574#2 -431750574#1 -431750574#0 -296532165#2 -296532165#1 -296532165#0 -136201595#1 -136201595#0 432247965#0"/>
    </vehicle>
    <vehicle id="54" depart="54.00">
        <route edges="431750569#3 541724221#0 541724221#1 541724221#2 431920751#0 431920751#1 431920751#2 104750532#0 104750532#1 104750532#2 104750532#3 104750532#4 31154057#3 31154057#4 31154057#5 31154057#6 31154057#7 31281345#0 31281345#1 31281345#2 31281345#3 351942413#5 351942413#6 351942414#1 351942414#2 351942414#3 351942414#4 425431676#0 425431676#1 425431676#2 425431687#0 425431687#1"/>
    </vehicle>
    <vehicle id="55" depart="55.00">
        <route edges="24918887#14 409656670#0 409656670#1 409656670#2 353552119#6 353552119#7 31154057#0 31154057#1 31154057#2 -31154057#2 -31154057#1"/>
    </vehicle>
    <vehicle id="56" depart="56.00">